
 Fire Dynamics Simulator

 Current Date     : January  7, 2026  12:21:47
 Revision         : FDS-6.9.1-0-g889da6a-release
 Revision Date    : Sun Apr 7 17:05:06 2024 -0400
 Compiler         : Intel(R) Fortran Intel(R) 64 Compiler Classic for applications running on Intel(R) 64, Version 2021.7.1 Build 20221019_000000
 Compilation Date : Apr 09, 2024 13:24:51

 Number of MPI Processes:  1

 MPI version: 3.1
 MPI library version: Intel(R) MPI Library 2021.6 for Linux* OS


 Job TITLE        : Forced convection heat transfer
 Job ID string    : Pohlhausen_Pr_1


 Grid Dimensions, Mesh     1

   Cells in the X Direction            10
   Cells in the Y Direction             1
   Cells in the Z Direction             8
   Number of Grid Cells                80


 Physical Dimensions, Mesh     1

   Length (m)                       5.000
   Width  (m)                       0.200
   Height (m)                       1.000

 Grid Dimensions, Mesh     2

   Cells in the X Direction            10
   Cells in the Y Direction             1
   Cells in the Z Direction             8
   Number of Grid Cells                80


 Physical Dimensions, Mesh     2

   Length (m)                       5.000
   Width  (m)                       0.200
   Height (m)                       1.000

 Miscellaneous Parameters

   Total Number of Grid Cells         160
   Maximum Cell Aspect Ratio        4.000
   Initial Time Step (s)            1.250
   CFL Velocity Norm                    1
   Simulation Start Time (s)          0.0
   Simulation End Time (s)           60.0
   Background Pressure (Pa)     101325.00
   Ambient Temperature (C)          20.00

   2D Cartesian
   DNS Calculation


 Pressure solver information

   Solver:                         UGLMAT
   Velocity tolerance (m/s):    1.250E-01
   Press eqn res tol (1/s^2):   3.200E+02
   Max pressure iterations:            10


 Mass Fraction Transformation Matrix to Convert Species Mixtures (Columns) to Primitive Species (Rows)

                         LJ AIR  
   LJ AIR                1.000000


 Primitive Species Information

   LJ AIR
   Gas Species
   Molecular Weight (g/mol)                28.85476
   Ambient Density (kg/m^3)                1.200
           Enthalpy of Formation (J/kg)  2.982E+05


 Tracked (Lumped) Species Information

   LJ AIR
   Molecular Weight (g/mol)            28.85476
   Ambient Density (kg/m^3)            1.200
   Initial Mass Fraction               1.000
   Enthalpy of Formation (J/kg)      2.982E+05

   Sub Species                    Mass Fraction     Mole Fraction
   LJ AIR                         1.000000E+00      1.000000E+00
 
     Viscosity (kg/m/s) Ambient,  293 K:  1.000E-03
                                  500 K:  1.000E-03
                                 1000 K:  1.000E-03
                                 1500 K:  1.000E-03
                                 2000 K:  1.000E-03
   Therm. Cond. (W/m/K) Ambient,  293 K:  1.000E+00
                                  500 K:  1.000E+00
                                 1000 K:  1.000E+00
                                 1500 K:  1.000E+00
                                 2000 K:  1.000E+00
        Enthalpy (J/kg) Ambient,  293 K:  2.932E+05
                                  500 K:  5.000E+05
                                 1000 K:  1.000E+06
                                 1500 K:  1.500E+06
                                 2000 K:  2.000E+06
    Spec. Heat (J/kg/K) Ambient,  293 K:  1.000E+03
                                  500 K:  1.000E+03
                                 1000 K:  1.000E+03
                                 1500 K:  1.000E+03
                                 2000 K:  1.000E+03
   Diff. Coeff. (m^2/s) Ambient,  293 K:  2.005E-05
                                  500 K:  5.002E-05
                                 1000 K:  1.594E-04
                                 1500 K:  3.122E-04
                                 2000 K:  5.027E-04


 Material Information


 Surface Conditions

   0 INERT (DEFAULT)

   1 hot plate
     Wall or Vent Temperature (C)    21.0

   2 inlet
     Normal Velocity (m/s)        -1.000
     LJ AIR Mass Fraction         1.000

   3 top

   4 OPEN
     Passive Vent to Atmosphere

   5 MIRROR
     Symmetry Plane

   6 INTERPOLATED

   7 PERIODIC

   8 HVAC

   9 MASSLESS TRACER

  10 DROPLET

  11 MASSLESS TARGET

  12 PERIODIC FLOW ONLY


 Lagrangian Particle Classes


 Cut-off Density and Temperature

    Minimum Temperature:   -10.0 C
    Maximum Temperature:  2726.8 C
    Minimum Density:  1.200E-01 kg/m3
    Maximum Density:  2.673E+00 kg/m3


 Device Information

   1 ID: T_out
     QUANTITY: TEMPERATURE
     Coordinates (X,Y,Z):    9.950000E+00    0.000000E+00    5.000000E-01
     TEMPORAL STATISTIC: TIME AVERAGE
   2 ID: q_wall
     QUANTITY: CONVECTIVE HEAT FLUX
     Coordinates (X,Y,Z):    5.000000E-02    0.000000E+00    1.250000E-03
     TEMPORAL STATISTIC: RUNNING AVERAGE
   3 ID: q_wall
     QUANTITY: CONVECTIVE HEAT FLUX
     Coordinates (X,Y,Z):    1.500000E-01    0.000000E+00    1.250000E-03
     TEMPORAL STATISTIC: RUNNING AVERAGE
   4 ID: q_wall
     QUANTITY: CONVECTIVE HEAT FLUX
     Coordinates (X,Y,Z):    2.500000E-01    0.000000E+00    1.250000E-03
     TEMPORAL STATISTIC: RUNNING AVERAGE
   5 ID: q_wall
     QUANTITY: CONVECTIVE HEAT FLUX
     Coordinates (X,Y,Z):    3.500000E-01    0.000000E+00    1.250000E-03
     TEMPORAL STATISTIC: RUNNING AVERAGE
   6 ID: q_wall
     QUANTITY: CONVECTIVE HEAT FLUX
     Coordinates (X,Y,Z):    4.500000E-01    0.000000E+00    1.250000E-03
     TEMPORAL STATISTIC: RUNNING AVERAGE
   7 ID: q_wall
     QUANTITY: CONVECTIVE HEAT FLUX
     Coordinates (X,Y,Z):    5.500000E-01    0.000000E+00    1.250000E-03
     TEMPORAL STATISTIC: RUNNING AVERAGE
   8 ID: q_wall
     QUANTITY: CONVECTIVE HEAT FLUX
     Coordinates (X,Y,Z):    6.500000E-01    0.000000E+00    1.250000E-03
     TEMPORAL STATISTIC: RUNNING AVERAGE
   9 ID: q_wall
     QUANTITY: CONVECTIVE HEAT FLUX
     Coordinates (X,Y,Z):    7.500000E-01    0.000000E+00    1.250000E-03
     TEMPORAL STATISTIC: RUNNING AVERAGE
  10 ID: q_wall
     QUANTITY: CONVECTIVE HEAT FLUX
     Coordinates (X,Y,Z):    8.500000E-01    0.000000E+00    1.250000E-03
     TEMPORAL STATISTIC: RUNNING AVERAGE
  11 ID: q_wall
     QUANTITY: CONVECTIVE HEAT FLUX
     Coordinates (X,Y,Z):    9.500000E-01    0.000000E+00    1.250000E-03
     TEMPORAL STATISTIC: RUNNING AVERAGE
  12 ID: q_wall
     QUANTITY: CONVECTIVE HEAT FLUX
     Coordinates (X,Y,Z):    1.050000E+00    0.000000E+00    1.250000E-03
     TEMPORAL STATISTIC: RUNNING AVERAGE
  13 ID: q_wall
     QUANTITY: CONVECTIVE HEAT FLUX
     Coordinates (X,Y,Z):    1.150000E+00    0.000000E+00    1.250000E-03
     TEMPORAL STATISTIC: RUNNING AVERAGE
  14 ID: q_wall
     QUANTITY: CONVECTIVE HEAT FLUX
     Coordinates (X,Y,Z):    1.250000E+00    0.000000E+00    1.250000E-03
     TEMPORAL STATISTIC: RUNNING AVERAGE
  15 ID: q_wall
     QUANTITY: CONVECTIVE HEAT FLUX
     Coordinates (X,Y,Z):    1.350000E+00    0.000000E+00    1.250000E-03
     TEMPORAL STATISTIC: RUNNING AVERAGE
  16 ID: q_wall
     QUANTITY: CONVECTIVE HEAT FLUX
     Coordinates (X,Y,Z):    1.450000E+00    0.000000E+00    1.250000E-03
     TEMPORAL STATISTIC: RUNNING AVERAGE
  17 ID: q_wall
     QUANTITY: CONVECTIVE HEAT FLUX
     Coordinates (X,Y,Z):    1.550000E+00    0.000000E+00    1.250000E-03
     TEMPORAL STATISTIC: RUNNING AVERAGE
  18 ID: q_wall
     QUANTITY: CONVECTIVE HEAT FLUX
     Coordinates (X,Y,Z):    1.650000E+00    0.000000E+00    1.250000E-03
     TEMPORAL STATISTIC: RUNNING AVERAGE
  19 ID: q_wall
     QUANTITY: CONVECTIVE HEAT FLUX
     Coordinates (X,Y,Z):    1.750000E+00    0.000000E+00    1.250000E-03
     TEMPORAL STATISTIC: RUNNING AVERAGE
  20 ID: q_wall
     QUANTITY: CONVECTIVE HEAT FLUX
     Coordinates (X,Y,Z):    1.850000E+00    0.000000E+00    1.250000E-03
     TEMPORAL STATISTIC: RUNNING AVERAGE
  21 ID: q_wall
     QUANTITY: CONVECTIVE HEAT FLUX
     Coordinates (X,Y,Z):    1.950000E+00    0.000000E+00    1.250000E-03
     TEMPORAL STATISTIC: RUNNING AVERAGE
  22 ID: q_wall
     QUANTITY: CONVECTIVE HEAT FLUX
     Coordinates (X,Y,Z):    2.050000E+00    0.000000E+00    1.250000E-03
     TEMPORAL STATISTIC: RUNNING AVERAGE
  23 ID: q_wall
     QUANTITY: CONVECTIVE HEAT FLUX
     Coordinates (X,Y,Z):    2.150000E+00    0.000000E+00    1.250000E-03
     TEMPORAL STATISTIC: RUNNING AVERAGE
  24 ID: q_wall
     QUANTITY: CONVECTIVE HEAT FLUX
     Coordinates (X,Y,Z):    2.250000E+00    0.000000E+00    1.250000E-03
     TEMPORAL STATISTIC: RUNNING AVERAGE
  25 ID: q_wall
     QUANTITY: CONVECTIVE HEAT FLUX
     Coordinates (X,Y,Z):    2.350000E+00    0.000000E+00    1.250000E-03
     TEMPORAL STATISTIC: RUNNING AVERAGE
  26 ID: q_wall
     QUANTITY: CONVECTIVE HEAT FLUX
     Coordinates (X,Y,Z):    2.450000E+00    0.000000E+00    1.250000E-03
     TEMPORAL STATISTIC: RUNNING AVERAGE
  27 ID: q_wall
     QUANTITY: CONVECTIVE HEAT FLUX
     Coordinates (X,Y,Z):    2.550000E+00    0.000000E+00    1.250000E-03
     TEMPORAL STATISTIC: RUNNING AVERAGE
  28 ID: q_wall
     QUANTITY: CONVECTIVE HEAT FLUX
     Coordinates (X,Y,Z):    2.650000E+00    0.000000E+00    1.250000E-03
     TEMPORAL STATISTIC: RUNNING AVERAGE
  29 ID: q_wall
     QUANTITY: CONVECTIVE HEAT FLUX
     Coordinates (X,Y,Z):    2.750000E+00    0.000000E+00    1.250000E-03
     TEMPORAL STATISTIC: RUNNING AVERAGE
  30 ID: q_wall
     QUANTITY: CONVECTIVE HEAT FLUX
     Coordinates (X,Y,Z):    2.850000E+00    0.000000E+00    1.250000E-03
     TEMPORAL STATISTIC: RUNNING AVERAGE
  31 ID: q_wall
     QUANTITY: CONVECTIVE HEAT FLUX
     Coordinates (X,Y,Z):    2.950000E+00    0.000000E+00    1.250000E-03
     TEMPORAL STATISTIC: RUNNING AVERAGE
  32 ID: q_wall
     QUANTITY: CONVECTIVE HEAT FLUX
     Coordinates (X,Y,Z):    3.050000E+00    0.000000E+00    1.250000E-03
     TEMPORAL STATISTIC: RUNNING AVERAGE
  33 ID: q_wall
     QUANTITY: CONVECTIVE HEAT FLUX
     Coordinates (X,Y,Z):    3.150000E+00    0.000000E+00    1.250000E-03
     TEMPORAL STATISTIC: RUNNING AVERAGE
  34 ID: q_wall
     QUANTITY: CONVECTIVE HEAT FLUX
     Coordinates (X,Y,Z):    3.250000E+00    0.000000E+00    1.250000E-03
     TEMPORAL STATISTIC: RUNNING AVERAGE
  35 ID: q_wall
     QUANTITY: CONVECTIVE HEAT FLUX
     Coordinates (X,Y,Z):    3.350000E+00    0.000000E+00    1.250000E-03
     TEMPORAL STATISTIC: RUNNING AVERAGE
  36 ID: q_wall
     QUANTITY: CONVECTIVE HEAT FLUX
     Coordinates (X,Y,Z):    3.450000E+00    0.000000E+00    1.250000E-03
     TEMPORAL STATISTIC: RUNNING AVERAGE
  37 ID: q_wall
     QUANTITY: CONVECTIVE HEAT FLUX
     Coordinates (X,Y,Z):    3.550000E+00    0.000000E+00    1.250000E-03
     TEMPORAL STATISTIC: RUNNING AVERAGE
  38 ID: q_wall
     QUANTITY: CONVECTIVE HEAT FLUX
     Coordinates (X,Y,Z):    3.650000E+00    0.000000E+00    1.250000E-03
     TEMPORAL STATISTIC: RUNNING AVERAGE
  39 ID: q_wall
     QUANTITY: CONVECTIVE HEAT FLUX
     Coordinates (X,Y,Z):    3.750000E+00    0.000000E+00    1.250000E-03
     TEMPORAL STATISTIC: RUNNING AVERAGE
  40 ID: q_wall
     QUANTITY: CONVECTIVE HEAT FLUX
     Coordinates (X,Y,Z):    3.850000E+00    0.000000E+00    1.250000E-03
     TEMPORAL STATISTIC: RUNNING AVERAGE
  41 ID: q_wall
     QUANTITY: CONVECTIVE HEAT FLUX
     Coordinates (X,Y,Z):    3.950000E+00    0.000000E+00    1.250000E-03
     TEMPORAL STATISTIC: RUNNING AVERAGE
  42 ID: q_wall
     QUANTITY: CONVECTIVE HEAT FLUX
     Coordinates (X,Y,Z):    4.050000E+00    0.000000E+00    1.250000E-03
     TEMPORAL STATISTIC: RUNNING AVERAGE
  43 ID: q_wall
     QUANTITY: CONVECTIVE HEAT FLUX
     Coordinates (X,Y,Z):    4.150000E+00    0.000000E+00    1.250000E-03
     TEMPORAL STATISTIC: RUNNING AVERAGE
  44 ID: q_wall
     QUANTITY: CONVECTIVE HEAT FLUX
     Coordinates (X,Y,Z):    4.250000E+00    0.000000E+00    1.250000E-03
     TEMPORAL STATISTIC: RUNNING AVERAGE
  45 ID: q_wall
     QUANTITY: CONVECTIVE HEAT FLUX
     Coordinates (X,Y,Z):    4.350000E+00    0.000000E+00    1.250000E-03
     TEMPORAL STATISTIC: RUNNING AVERAGE
  46 ID: q_wall
     QUANTITY: CONVECTIVE HEAT FLUX
     Coordinates (X,Y,Z):    4.450000E+00    0.000000E+00    1.250000E-03
     TEMPORAL STATISTIC: RUNNING AVERAGE
  47 ID: q_wall
     QUANTITY: CONVECTIVE HEAT FLUX
     Coordinates (X,Y,Z):    4.550000E+00    0.000000E+00    1.250000E-03
     TEMPORAL STATISTIC: RUNNING AVERAGE
  48 ID: q_wall
     QUANTITY: CONVECTIVE HEAT FLUX
     Coordinates (X,Y,Z):    4.650000E+00    0.000000E+00    1.250000E-03
     TEMPORAL STATISTIC: RUNNING AVERAGE
  49 ID: q_wall
     QUANTITY: CONVECTIVE HEAT FLUX
     Coordinates (X,Y,Z):    4.750000E+00    0.000000E+00    1.250000E-03
     TEMPORAL STATISTIC: RUNNING AVERAGE
  50 ID: q_wall
     QUANTITY: CONVECTIVE HEAT FLUX
     Coordinates (X,Y,Z):    4.850000E+00    0.000000E+00    1.250000E-03
     TEMPORAL STATISTIC: RUNNING AVERAGE
  51 ID: q_wall
     QUANTITY: CONVECTIVE HEAT FLUX
     Coordinates (X,Y,Z):    4.950000E+00    0.000000E+00    1.250000E-03
     TEMPORAL STATISTIC: RUNNING AVERAGE
  52 ID: q_wall
     QUANTITY: CONVECTIVE HEAT FLUX
     Coordinates (X,Y,Z):    5.050000E+00    0.000000E+00    1.250000E-03
     TEMPORAL STATISTIC: RUNNING AVERAGE
  53 ID: q_wall
     QUANTITY: CONVECTIVE HEAT FLUX
     Coordinates (X,Y,Z):    5.150000E+00    0.000000E+00    1.250000E-03
     TEMPORAL STATISTIC: RUNNING AVERAGE
  54 ID: q_wall
     QUANTITY: CONVECTIVE HEAT FLUX
     Coordinates (X,Y,Z):    5.250000E+00    0.000000E+00    1.250000E-03
     TEMPORAL STATISTIC: RUNNING AVERAGE
  55 ID: q_wall
     QUANTITY: CONVECTIVE HEAT FLUX
     Coordinates (X,Y,Z):    5.350000E+00    0.000000E+00    1.250000E-03
     TEMPORAL STATISTIC: RUNNING AVERAGE
  56 ID: q_wall
     QUANTITY: CONVECTIVE HEAT FLUX
     Coordinates (X,Y,Z):    5.450000E+00    0.000000E+00    1.250000E-03
     TEMPORAL STATISTIC: RUNNING AVERAGE
  57 ID: q_wall
     QUANTITY: CONVECTIVE HEAT FLUX
     Coordinates (X,Y,Z):    5.550000E+00    0.000000E+00    1.250000E-03
     TEMPORAL STATISTIC: RUNNING AVERAGE
  58 ID: q_wall
     QUANTITY: CONVECTIVE HEAT FLUX
     Coordinates (X,Y,Z):    5.650000E+00    0.000000E+00    1.250000E-03
     TEMPORAL STATISTIC: RUNNING AVERAGE
  59 ID: q_wall
     QUANTITY: CONVECTIVE HEAT FLUX
     Coordinates (X,Y,Z):    5.750000E+00    0.000000E+00    1.250000E-03
     TEMPORAL STATISTIC: RUNNING AVERAGE
  60 ID: q_wall
     QUANTITY: CONVECTIVE HEAT FLUX
     Coordinates (X,Y,Z):    5.850000E+00    0.000000E+00    1.250000E-03
     TEMPORAL STATISTIC: RUNNING AVERAGE
  61 ID: q_wall
     QUANTITY: CONVECTIVE HEAT FLUX
     Coordinates (X,Y,Z):    5.950000E+00    0.000000E+00    1.250000E-03
     TEMPORAL STATISTIC: RUNNING AVERAGE
  62 ID: q_wall
     QUANTITY: CONVECTIVE HEAT FLUX
     Coordinates (X,Y,Z):    6.050000E+00    0.000000E+00    1.250000E-03
     TEMPORAL STATISTIC: RUNNING AVERAGE
  63 ID: q_wall
     QUANTITY: CONVECTIVE HEAT FLUX
     Coordinates (X,Y,Z):    6.150000E+00    0.000000E+00    1.250000E-03
     TEMPORAL STATISTIC: RUNNING AVERAGE
  64 ID: q_wall
     QUANTITY: CONVECTIVE HEAT FLUX
     Coordinates (X,Y,Z):    6.250000E+00    0.000000E+00    1.250000E-03
     TEMPORAL STATISTIC: RUNNING AVERAGE
  65 ID: q_wall
     QUANTITY: CONVECTIVE HEAT FLUX
     Coordinates (X,Y,Z):    6.350000E+00    0.000000E+00    1.250000E-03
     TEMPORAL STATISTIC: RUNNING AVERAGE
  66 ID: q_wall
     QUANTITY: CONVECTIVE HEAT FLUX
     Coordinates (X,Y,Z):    6.450000E+00    0.000000E+00    1.250000E-03
     TEMPORAL STATISTIC: RUNNING AVERAGE
  67 ID: q_wall
     QUANTITY: CONVECTIVE HEAT FLUX
     Coordinates (X,Y,Z):    6.550000E+00    0.000000E+00    1.250000E-03
     TEMPORAL STATISTIC: RUNNING AVERAGE
  68 ID: q_wall
     QUANTITY: CONVECTIVE HEAT FLUX
     Coordinates (X,Y,Z):    6.650000E+00    0.000000E+00    1.250000E-03
     TEMPORAL STATISTIC: RUNNING AVERAGE
  69 ID: q_wall
     QUANTITY: CONVECTIVE HEAT FLUX
     Coordinates (X,Y,Z):    6.750000E+00    0.000000E+00    1.250000E-03
     TEMPORAL STATISTIC: RUNNING AVERAGE
  70 ID: q_wall
     QUANTITY: CONVECTIVE HEAT FLUX
     Coordinates (X,Y,Z):    6.850000E+00    0.000000E+00    1.250000E-03
     TEMPORAL STATISTIC: RUNNING AVERAGE
  71 ID: q_wall
     QUANTITY: CONVECTIVE HEAT FLUX
     Coordinates (X,Y,Z):    6.950000E+00    0.000000E+00    1.250000E-03
     TEMPORAL STATISTIC: RUNNING AVERAGE
  72 ID: q_wall
     QUANTITY: CONVECTIVE HEAT FLUX
     Coordinates (X,Y,Z):    7.050000E+00    0.000000E+00    1.250000E-03
     TEMPORAL STATISTIC: RUNNING AVERAGE
  73 ID: q_wall
     QUANTITY: CONVECTIVE HEAT FLUX
     Coordinates (X,Y,Z):    7.150000E+00    0.000000E+00    1.250000E-03
     TEMPORAL STATISTIC: RUNNING AVERAGE
  74 ID: q_wall
     QUANTITY: CONVECTIVE HEAT FLUX
     Coordinates (X,Y,Z):    7.250000E+00    0.000000E+00    1.250000E-03
     TEMPORAL STATISTIC: RUNNING AVERAGE
  75 ID: q_wall
     QUANTITY: CONVECTIVE HEAT FLUX
     Coordinates (X,Y,Z):    7.350000E+00    0.000000E+00    1.250000E-03
     TEMPORAL STATISTIC: RUNNING AVERAGE
  76 ID: q_wall
     QUANTITY: CONVECTIVE HEAT FLUX
     Coordinates (X,Y,Z):    7.450000E+00    0.000000E+00    1.250000E-03
     TEMPORAL STATISTIC: RUNNING AVERAGE
  77 ID: q_wall
     QUANTITY: CONVECTIVE HEAT FLUX
     Coordinates (X,Y,Z):    7.550000E+00    0.000000E+00    1.250000E-03
     TEMPORAL STATISTIC: RUNNING AVERAGE
  78 ID: q_wall
     QUANTITY: CONVECTIVE HEAT FLUX
     Coordinates (X,Y,Z):    7.650000E+00    0.000000E+00    1.250000E-03
     TEMPORAL STATISTIC: RUNNING AVERAGE
  79 ID: q_wall
     QUANTITY: CONVECTIVE HEAT FLUX
     Coordinates (X,Y,Z):    7.750000E+00    0.000000E+00    1.250000E-03
     TEMPORAL STATISTIC: RUNNING AVERAGE
  80 ID: q_wall
     QUANTITY: CONVECTIVE HEAT FLUX
     Coordinates (X,Y,Z):    7.850000E+00    0.000000E+00    1.250000E-03
     TEMPORAL STATISTIC: RUNNING AVERAGE
  81 ID: q_wall
     QUANTITY: CONVECTIVE HEAT FLUX
     Coordinates (X,Y,Z):    7.950000E+00    0.000000E+00    1.250000E-03
     TEMPORAL STATISTIC: RUNNING AVERAGE
  82 ID: q_wall
     QUANTITY: CONVECTIVE HEAT FLUX
     Coordinates (X,Y,Z):    8.050000E+00    0.000000E+00    1.250000E-03
     TEMPORAL STATISTIC: RUNNING AVERAGE
  83 ID: q_wall
     QUANTITY: CONVECTIVE HEAT FLUX
     Coordinates (X,Y,Z):    8.150000E+00    0.000000E+00    1.250000E-03
     TEMPORAL STATISTIC: RUNNING AVERAGE
  84 ID: q_wall
     QUANTITY: CONVECTIVE HEAT FLUX
     Coordinates (X,Y,Z):    8.250000E+00    0.000000E+00    1.250000E-03
     TEMPORAL STATISTIC: RUNNING AVERAGE
  85 ID: q_wall
     QUANTITY: CONVECTIVE HEAT FLUX
     Coordinates (X,Y,Z):    8.350000E+00    0.000000E+00    1.250000E-03
     TEMPORAL STATISTIC: RUNNING AVERAGE
  86 ID: q_wall
     QUANTITY: CONVECTIVE HEAT FLUX
     Coordinates (X,Y,Z):    8.450000E+00    0.000000E+00    1.250000E-03
     TEMPORAL STATISTIC: RUNNING AVERAGE
  87 ID: q_wall
     QUANTITY: CONVECTIVE HEAT FLUX
     Coordinates (X,Y,Z):    8.550000E+00    0.000000E+00    1.250000E-03
     TEMPORAL STATISTIC: RUNNING AVERAGE
  88 ID: q_wall
     QUANTITY: CONVECTIVE HEAT FLUX
     Coordinates (X,Y,Z):    8.650000E+00    0.000000E+00    1.250000E-03
     TEMPORAL STATISTIC: RUNNING AVERAGE
  89 ID: q_wall
     QUANTITY: CONVECTIVE HEAT FLUX
     Coordinates (X,Y,Z):    8.750000E+00    0.000000E+00    1.250000E-03
     TEMPORAL STATISTIC: RUNNING AVERAGE
  90 ID: q_wall
     QUANTITY: CONVECTIVE HEAT FLUX
     Coordinates (X,Y,Z):    8.850000E+00    0.000000E+00    1.250000E-03
     TEMPORAL STATISTIC: RUNNING AVERAGE
  91 ID: q_wall
     QUANTITY: CONVECTIVE HEAT FLUX
     Coordinates (X,Y,Z):    8.950000E+00    0.000000E+00    1.250000E-03
     TEMPORAL STATISTIC: RUNNING AVERAGE
  92 ID: q_wall
     QUANTITY: CONVECTIVE HEAT FLUX
     Coordinates (X,Y,Z):    9.050000E+00    0.000000E+00    1.250000E-03
     TEMPORAL STATISTIC: RUNNING AVERAGE
  93 ID: q_wall
     QUANTITY: CONVECTIVE HEAT FLUX
     Coordinates (X,Y,Z):    9.150000E+00    0.000000E+00    1.250000E-03
     TEMPORAL STATISTIC: RUNNING AVERAGE
  94 ID: q_wall
     QUANTITY: CONVECTIVE HEAT FLUX
     Coordinates (X,Y,Z):    9.250000E+00    0.000000E+00    1.250000E-03
     TEMPORAL STATISTIC: RUNNING AVERAGE
  95 ID: q_wall
     QUANTITY: CONVECTIVE HEAT FLUX
     Coordinates (X,Y,Z):    9.350000E+00    0.000000E+00    1.250000E-03
     TEMPORAL STATISTIC: RUNNING AVERAGE
  96 ID: q_wall
     QUANTITY: CONVECTIVE HEAT FLUX
     Coordinates (X,Y,Z):    9.450000E+00    0.000000E+00    1.250000E-03
     TEMPORAL STATISTIC: RUNNING AVERAGE
  97 ID: q_wall
     QUANTITY: CONVECTIVE HEAT FLUX
     Coordinates (X,Y,Z):    9.550000E+00    0.000000E+00    1.250000E-03
     TEMPORAL STATISTIC: RUNNING AVERAGE
  98 ID: q_wall
     QUANTITY: CONVECTIVE HEAT FLUX
     Coordinates (X,Y,Z):    9.650000E+00    0.000000E+00    1.250000E-03
     TEMPORAL STATISTIC: RUNNING AVERAGE
  99 ID: q_wall
     QUANTITY: CONVECTIVE HEAT FLUX
     Coordinates (X,Y,Z):    9.750000E+00    0.000000E+00    1.250000E-03
     TEMPORAL STATISTIC: RUNNING AVERAGE
 100 ID: q_wall
     QUANTITY: CONVECTIVE HEAT FLUX
     Coordinates (X,Y,Z):    9.850000E+00    0.000000E+00    1.250000E-03
     TEMPORAL STATISTIC: RUNNING AVERAGE
 101 ID: q_wall
     QUANTITY: CONVECTIVE HEAT FLUX
     Coordinates (X,Y,Z):    9.950000E+00    0.000000E+00    1.250000E-03
     TEMPORAL STATISTIC: RUNNING AVERAGE
 102 ID: h_wall
     QUANTITY: HEAT TRANSFER COEFFICIENT
     Coordinates (X,Y,Z):    5.000000E-02    0.000000E+00    1.250000E-03
     TEMPORAL STATISTIC: RUNNING AVERAGE
 103 ID: h_wall
     QUANTITY: HEAT TRANSFER COEFFICIENT
     Coordinates (X,Y,Z):    1.500000E-01    0.000000E+00    1.250000E-03
     TEMPORAL STATISTIC: RUNNING AVERAGE
 104 ID: h_wall
     QUANTITY: HEAT TRANSFER COEFFICIENT
     Coordinates (X,Y,Z):    2.500000E-01    0.000000E+00    1.250000E-03
     TEMPORAL STATISTIC: RUNNING AVERAGE
 105 ID: h_wall
     QUANTITY: HEAT TRANSFER COEFFICIENT
     Coordinates (X,Y,Z):    3.500000E-01    0.000000E+00    1.250000E-03
     TEMPORAL STATISTIC: RUNNING AVERAGE
 106 ID: h_wall
     QUANTITY: HEAT TRANSFER COEFFICIENT
     Coordinates (X,Y,Z):    4.500000E-01    0.000000E+00    1.250000E-03
     TEMPORAL STATISTIC: RUNNING AVERAGE
 107 ID: h_wall
     QUANTITY: HEAT TRANSFER COEFFICIENT
     Coordinates (X,Y,Z):    5.500000E-01    0.000000E+00    1.250000E-03
     TEMPORAL STATISTIC: RUNNING AVERAGE
 108 ID: h_wall
     QUANTITY: HEAT TRANSFER COEFFICIENT
     Coordinates (X,Y,Z):    6.500000E-01    0.000000E+00    1.250000E-03
     TEMPORAL STATISTIC: RUNNING AVERAGE
 109 ID: h_wall
     QUANTITY: HEAT TRANSFER COEFFICIENT
     Coordinates (X,Y,Z):    7.500000E-01    0.000000E+00    1.250000E-03
     TEMPORAL STATISTIC: RUNNING AVERAGE
 110 ID: h_wall
     QUANTITY: HEAT TRANSFER COEFFICIENT
     Coordinates (X,Y,Z):    8.500000E-01    0.000000E+00    1.250000E-03
     TEMPORAL STATISTIC: RUNNING AVERAGE
 111 ID: h_wall
     QUANTITY: HEAT TRANSFER COEFFICIENT
     Coordinates (X,Y,Z):    9.500000E-01    0.000000E+00    1.250000E-03
     TEMPORAL STATISTIC: RUNNING AVERAGE
 112 ID: h_wall
     QUANTITY: HEAT TRANSFER COEFFICIENT
     Coordinates (X,Y,Z):    1.050000E+00    0.000000E+00    1.250000E-03
     TEMPORAL STATISTIC: RUNNING AVERAGE
 113 ID: h_wall
     QUANTITY: HEAT TRANSFER COEFFICIENT
     Coordinates (X,Y,Z):    1.150000E+00    0.000000E+00    1.250000E-03
     TEMPORAL STATISTIC: RUNNING AVERAGE
 114 ID: h_wall
     QUANTITY: HEAT TRANSFER COEFFICIENT
     Coordinates (X,Y,Z):    1.250000E+00    0.000000E+00    1.250000E-03
     TEMPORAL STATISTIC: RUNNING AVERAGE
 115 ID: h_wall
     QUANTITY: HEAT TRANSFER COEFFICIENT
     Coordinates (X,Y,Z):    1.350000E+00    0.000000E+00    1.250000E-03
     TEMPORAL STATISTIC: RUNNING AVERAGE
 116 ID: h_wall
     QUANTITY: HEAT TRANSFER COEFFICIENT
     Coordinates (X,Y,Z):    1.450000E+00    0.000000E+00    1.250000E-03
     TEMPORAL STATISTIC: RUNNING AVERAGE
 117 ID: h_wall
     QUANTITY: HEAT TRANSFER COEFFICIENT
     Coordinates (X,Y,Z):    1.550000E+00    0.000000E+00    1.250000E-03
     TEMPORAL STATISTIC: RUNNING AVERAGE
 118 ID: h_wall
     QUANTITY: HEAT TRANSFER COEFFICIENT
     Coordinates (X,Y,Z):    1.650000E+00    0.000000E+00    1.250000E-03
     TEMPORAL STATISTIC: RUNNING AVERAGE
 119 ID: h_wall
     QUANTITY: HEAT TRANSFER COEFFICIENT
     Coordinates (X,Y,Z):    1.750000E+00    0.000000E+00    1.250000E-03
     TEMPORAL STATISTIC: RUNNING AVERAGE
 120 ID: h_wall
     QUANTITY: HEAT TRANSFER COEFFICIENT
     Coordinates (X,Y,Z):    1.850000E+00    0.000000E+00    1.250000E-03
     TEMPORAL STATISTIC: RUNNING AVERAGE
 121 ID: h_wall
     QUANTITY: HEAT TRANSFER COEFFICIENT
     Coordinates (X,Y,Z):    1.950000E+00    0.000000E+00    1.250000E-03
     TEMPORAL STATISTIC: RUNNING AVERAGE
 122 ID: h_wall
     QUANTITY: HEAT TRANSFER COEFFICIENT
     Coordinates (X,Y,Z):    2.050000E+00    0.000000E+00    1.250000E-03
     TEMPORAL STATISTIC: RUNNING AVERAGE
 123 ID: h_wall
     QUANTITY: HEAT TRANSFER COEFFICIENT
     Coordinates (X,Y,Z):    2.150000E+00    0.000000E+00    1.250000E-03
     TEMPORAL STATISTIC: RUNNING AVERAGE
 124 ID: h_wall
     QUANTITY: HEAT TRANSFER COEFFICIENT
     Coordinates (X,Y,Z):    2.250000E+00    0.000000E+00    1.250000E-03
     TEMPORAL STATISTIC: RUNNING AVERAGE
 125 ID: h_wall
     QUANTITY: HEAT TRANSFER COEFFICIENT
     Coordinates (X,Y,Z):    2.350000E+00    0.000000E+00    1.250000E-03
     TEMPORAL STATISTIC: RUNNING AVERAGE
 126 ID: h_wall
     QUANTITY: HEAT TRANSFER COEFFICIENT
     Coordinates (X,Y,Z):    2.450000E+00    0.000000E+00    1.250000E-03
     TEMPORAL STATISTIC: RUNNING AVERAGE
 127 ID: h_wall
     QUANTITY: HEAT TRANSFER COEFFICIENT
     Coordinates (X,Y,Z):    2.550000E+00    0.000000E+00    1.250000E-03
     TEMPORAL STATISTIC: RUNNING AVERAGE
 128 ID: h_wall
     QUANTITY: HEAT TRANSFER COEFFICIENT
     Coordinates (X,Y,Z):    2.650000E+00    0.000000E+00    1.250000E-03
     TEMPORAL STATISTIC: RUNNING AVERAGE
 129 ID: h_wall
     QUANTITY: HEAT TRANSFER COEFFICIENT
     Coordinates (X,Y,Z):    2.750000E+00    0.000000E+00    1.250000E-03
     TEMPORAL STATISTIC: RUNNING AVERAGE
 130 ID: h_wall
     QUANTITY: HEAT TRANSFER COEFFICIENT
     Coordinates (X,Y,Z):    2.850000E+00    0.000000E+00    1.250000E-03
     TEMPORAL STATISTIC: RUNNING AVERAGE
 131 ID: h_wall
     QUANTITY: HEAT TRANSFER COEFFICIENT
     Coordinates (X,Y,Z):    2.950000E+00    0.000000E+00    1.250000E-03
     TEMPORAL STATISTIC: RUNNING AVERAGE
 132 ID: h_wall
     QUANTITY: HEAT TRANSFER COEFFICIENT
     Coordinates (X,Y,Z):    3.050000E+00    0.000000E+00    1.250000E-03
     TEMPORAL STATISTIC: RUNNING AVERAGE
 133 ID: h_wall
     QUANTITY: HEAT TRANSFER COEFFICIENT
     Coordinates (X,Y,Z):    3.150000E+00    0.000000E+00    1.250000E-03
     TEMPORAL STATISTIC: RUNNING AVERAGE
 134 ID: h_wall
     QUANTITY: HEAT TRANSFER COEFFICIENT
     Coordinates (X,Y,Z):    3.250000E+00    0.000000E+00    1.250000E-03
     TEMPORAL STATISTIC: RUNNING AVERAGE
 135 ID: h_wall
     QUANTITY: HEAT TRANSFER COEFFICIENT
     Coordinates (X,Y,Z):    3.350000E+00    0.000000E+00    1.250000E-03
     TEMPORAL STATISTIC: RUNNING AVERAGE
 136 ID: h_wall
     QUANTITY: HEAT TRANSFER COEFFICIENT
     Coordinates (X,Y,Z):    3.450000E+00    0.000000E+00    1.250000E-03
     TEMPORAL STATISTIC: RUNNING AVERAGE
 137 ID: h_wall
     QUANTITY: HEAT TRANSFER COEFFICIENT
     Coordinates (X,Y,Z):    3.550000E+00    0.000000E+00    1.250000E-03
     TEMPORAL STATISTIC: RUNNING AVERAGE
 138 ID: h_wall
     QUANTITY: HEAT TRANSFER COEFFICIENT
     Coordinates (X,Y,Z):    3.650000E+00    0.000000E+00    1.250000E-03
     TEMPORAL STATISTIC: RUNNING AVERAGE
 139 ID: h_wall
     QUANTITY: HEAT TRANSFER COEFFICIENT
     Coordinates (X,Y,Z):    3.750000E+00    0.000000E+00    1.250000E-03
     TEMPORAL STATISTIC: RUNNING AVERAGE
 140 ID: h_wall
     QUANTITY: HEAT TRANSFER COEFFICIENT
     Coordinates (X,Y,Z):    3.850000E+00    0.000000E+00    1.250000E-03
     TEMPORAL STATISTIC: RUNNING AVERAGE
 141 ID: h_wall
     QUANTITY: HEAT TRANSFER COEFFICIENT
     Coordinates (X,Y,Z):    3.950000E+00    0.000000E+00    1.250000E-03
     TEMPORAL STATISTIC: RUNNING AVERAGE
 142 ID: h_wall
     QUANTITY: HEAT TRANSFER COEFFICIENT
     Coordinates (X,Y,Z):    4.050000E+00    0.000000E+00    1.250000E-03
     TEMPORAL STATISTIC: RUNNING AVERAGE
 143 ID: h_wall
     QUANTITY: HEAT TRANSFER COEFFICIENT
     Coordinates (X,Y,Z):    4.150000E+00    0.000000E+00    1.250000E-03
     TEMPORAL STATISTIC: RUNNING AVERAGE
 144 ID: h_wall
     QUANTITY: HEAT TRANSFER COEFFICIENT
     Coordinates (X,Y,Z):    4.250000E+00    0.000000E+00    1.250000E-03
     TEMPORAL STATISTIC: RUNNING AVERAGE
 145 ID: h_wall
     QUANTITY: HEAT TRANSFER COEFFICIENT
     Coordinates (X,Y,Z):    4.350000E+00    0.000000E+00    1.250000E-03
     TEMPORAL STATISTIC: RUNNING AVERAGE
 146 ID: h_wall
     QUANTITY: HEAT TRANSFER COEFFICIENT
     Coordinates (X,Y,Z):    4.450000E+00    0.000000E+00    1.250000E-03
     TEMPORAL STATISTIC: RUNNING AVERAGE
 147 ID: h_wall
     QUANTITY: HEAT TRANSFER COEFFICIENT
     Coordinates (X,Y,Z):    4.550000E+00    0.000000E+00    1.250000E-03
     TEMPORAL STATISTIC: RUNNING AVERAGE
 148 ID: h_wall
     QUANTITY: HEAT TRANSFER COEFFICIENT
     Coordinates (X,Y,Z):    4.650000E+00    0.000000E+00    1.250000E-03
     TEMPORAL STATISTIC: RUNNING AVERAGE
 149 ID: h_wall
     QUANTITY: HEAT TRANSFER COEFFICIENT
     Coordinates (X,Y,Z):    4.750000E+00    0.000000E+00    1.250000E-03
     TEMPORAL STATISTIC: RUNNING AVERAGE
 150 ID: h_wall
     QUANTITY: HEAT TRANSFER COEFFICIENT
     Coordinates (X,Y,Z):    4.850000E+00    0.000000E+00    1.250000E-03
     TEMPORAL STATISTIC: RUNNING AVERAGE
 151 ID: h_wall
     QUANTITY: HEAT TRANSFER COEFFICIENT
     Coordinates (X,Y,Z):    4.950000E+00    0.000000E+00    1.250000E-03
     TEMPORAL STATISTIC: RUNNING AVERAGE
 152 ID: h_wall
     QUANTITY: HEAT TRANSFER COEFFICIENT
     Coordinates (X,Y,Z):    5.050000E+00    0.000000E+00    1.250000E-03
     TEMPORAL STATISTIC: RUNNING AVERAGE
 153 ID: h_wall
     QUANTITY: HEAT TRANSFER COEFFICIENT
     Coordinates (X,Y,Z):    5.150000E+00    0.000000E+00    1.250000E-03
     TEMPORAL STATISTIC: RUNNING AVERAGE
 154 ID: h_wall
     QUANTITY: HEAT TRANSFER COEFFICIENT
     Coordinates (X,Y,Z):    5.250000E+00    0.000000E+00    1.250000E-03
     TEMPORAL STATISTIC: RUNNING AVERAGE
 155 ID: h_wall
     QUANTITY: HEAT TRANSFER COEFFICIENT
     Coordinates (X,Y,Z):    5.350000E+00    0.000000E+00    1.250000E-03
     TEMPORAL STATISTIC: RUNNING AVERAGE
 156 ID: h_wall
     QUANTITY: HEAT TRANSFER COEFFICIENT
     Coordinates (X,Y,Z):    5.450000E+00    0.000000E+00    1.250000E-03
     TEMPORAL STATISTIC: RUNNING AVERAGE
 157 ID: h_wall
     QUANTITY: HEAT TRANSFER COEFFICIENT
     Coordinates (X,Y,Z):    5.550000E+00    0.000000E+00    1.250000E-03
     TEMPORAL STATISTIC: RUNNING AVERAGE
 158 ID: h_wall
     QUANTITY: HEAT TRANSFER COEFFICIENT
     Coordinates (X,Y,Z):    5.650000E+00    0.000000E+00    1.250000E-03
     TEMPORAL STATISTIC: RUNNING AVERAGE
 159 ID: h_wall
     QUANTITY: HEAT TRANSFER COEFFICIENT
     Coordinates (X,Y,Z):    5.750000E+00    0.000000E+00    1.250000E-03
     TEMPORAL STATISTIC: RUNNING AVERAGE
 160 ID: h_wall
     QUANTITY: HEAT TRANSFER COEFFICIENT
     Coordinates (X,Y,Z):    5.850000E+00    0.000000E+00    1.250000E-03
     TEMPORAL STATISTIC: RUNNING AVERAGE
 161 ID: h_wall
     QUANTITY: HEAT TRANSFER COEFFICIENT
     Coordinates (X,Y,Z):    5.950000E+00    0.000000E+00    1.250000E-03
     TEMPORAL STATISTIC: RUNNING AVERAGE
 162 ID: h_wall
     QUANTITY: HEAT TRANSFER COEFFICIENT
     Coordinates (X,Y,Z):    6.050000E+00    0.000000E+00    1.250000E-03
     TEMPORAL STATISTIC: RUNNING AVERAGE
 163 ID: h_wall
     QUANTITY: HEAT TRANSFER COEFFICIENT
     Coordinates (X,Y,Z):    6.150000E+00    0.000000E+00    1.250000E-03
     TEMPORAL STATISTIC: RUNNING AVERAGE
 164 ID: h_wall
     QUANTITY: HEAT TRANSFER COEFFICIENT
     Coordinates (X,Y,Z):    6.250000E+00    0.000000E+00    1.250000E-03
     TEMPORAL STATISTIC: RUNNING AVERAGE
 165 ID: h_wall
     QUANTITY: HEAT TRANSFER COEFFICIENT
     Coordinates (X,Y,Z):    6.350000E+00    0.000000E+00    1.250000E-03
     TEMPORAL STATISTIC: RUNNING AVERAGE
 166 ID: h_wall
     QUANTITY: HEAT TRANSFER COEFFICIENT
     Coordinates (X,Y,Z):    6.450000E+00    0.000000E+00    1.250000E-03
     TEMPORAL STATISTIC: RUNNING AVERAGE
 167 ID: h_wall
     QUANTITY: HEAT TRANSFER COEFFICIENT
     Coordinates (X,Y,Z):    6.550000E+00    0.000000E+00    1.250000E-03
     TEMPORAL STATISTIC: RUNNING AVERAGE
 168 ID: h_wall
     QUANTITY: HEAT TRANSFER COEFFICIENT
     Coordinates (X,Y,Z):    6.650000E+00    0.000000E+00    1.250000E-03
     TEMPORAL STATISTIC: RUNNING AVERAGE
 169 ID: h_wall
     QUANTITY: HEAT TRANSFER COEFFICIENT
     Coordinates (X,Y,Z):    6.750000E+00    0.000000E+00    1.250000E-03
     TEMPORAL STATISTIC: RUNNING AVERAGE
 170 ID: h_wall
     QUANTITY: HEAT TRANSFER COEFFICIENT
     Coordinates (X,Y,Z):    6.850000E+00    0.000000E+00    1.250000E-03
     TEMPORAL STATISTIC: RUNNING AVERAGE
 171 ID: h_wall
     QUANTITY: HEAT TRANSFER COEFFICIENT
     Coordinates (X,Y,Z):    6.950000E+00    0.000000E+00    1.250000E-03
     TEMPORAL STATISTIC: RUNNING AVERAGE
 172 ID: h_wall
     QUANTITY: HEAT TRANSFER COEFFICIENT
     Coordinates (X,Y,Z):    7.050000E+00    0.000000E+00    1.250000E-03
     TEMPORAL STATISTIC: RUNNING AVERAGE
 173 ID: h_wall
     QUANTITY: HEAT TRANSFER COEFFICIENT
     Coordinates (X,Y,Z):    7.150000E+00    0.000000E+00    1.250000E-03
     TEMPORAL STATISTIC: RUNNING AVERAGE
 174 ID: h_wall
     QUANTITY: HEAT TRANSFER COEFFICIENT
     Coordinates (X,Y,Z):    7.250000E+00    0.000000E+00    1.250000E-03
     TEMPORAL STATISTIC: RUNNING AVERAGE
 175 ID: h_wall
     QUANTITY: HEAT TRANSFER COEFFICIENT
     Coordinates (X,Y,Z):    7.350000E+00    0.000000E+00    1.250000E-03
     TEMPORAL STATISTIC: RUNNING AVERAGE
 176 ID: h_wall
     QUANTITY: HEAT TRANSFER COEFFICIENT
     Coordinates (X,Y,Z):    7.450000E+00    0.000000E+00    1.250000E-03
     TEMPORAL STATISTIC: RUNNING AVERAGE
 177 ID: h_wall
     QUANTITY: HEAT TRANSFER COEFFICIENT
     Coordinates (X,Y,Z):    7.550000E+00    0.000000E+00    1.250000E-03
     TEMPORAL STATISTIC: RUNNING AVERAGE
 178 ID: h_wall
     QUANTITY: HEAT TRANSFER COEFFICIENT
     Coordinates (X,Y,Z):    7.650000E+00    0.000000E+00    1.250000E-03
     TEMPORAL STATISTIC: RUNNING AVERAGE
 179 ID: h_wall
     QUANTITY: HEAT TRANSFER COEFFICIENT
     Coordinates (X,Y,Z):    7.750000E+00    0.000000E+00    1.250000E-03
     TEMPORAL STATISTIC: RUNNING AVERAGE
 180 ID: h_wall
     QUANTITY: HEAT TRANSFER COEFFICIENT
     Coordinates (X,Y,Z):    7.850000E+00    0.000000E+00    1.250000E-03
     TEMPORAL STATISTIC: RUNNING AVERAGE
 181 ID: h_wall
     QUANTITY: HEAT TRANSFER COEFFICIENT
     Coordinates (X,Y,Z):    7.950000E+00    0.000000E+00    1.250000E-03
     TEMPORAL STATISTIC: RUNNING AVERAGE
 182 ID: h_wall
     QUANTITY: HEAT TRANSFER COEFFICIENT
     Coordinates (X,Y,Z):    8.050000E+00    0.000000E+00    1.250000E-03
     TEMPORAL STATISTIC: RUNNING AVERAGE
 183 ID: h_wall
     QUANTITY: HEAT TRANSFER COEFFICIENT
     Coordinates (X,Y,Z):    8.150000E+00    0.000000E+00    1.250000E-03
     TEMPORAL STATISTIC: RUNNING AVERAGE
 184 ID: h_wall
     QUANTITY: HEAT TRANSFER COEFFICIENT
     Coordinates (X,Y,Z):    8.250000E+00    0.000000E+00    1.250000E-03
     TEMPORAL STATISTIC: RUNNING AVERAGE
 185 ID: h_wall
     QUANTITY: HEAT TRANSFER COEFFICIENT
     Coordinates (X,Y,Z):    8.350000E+00    0.000000E+00    1.250000E-03
     TEMPORAL STATISTIC: RUNNING AVERAGE
 186 ID: h_wall
     QUANTITY: HEAT TRANSFER COEFFICIENT
     Coordinates (X,Y,Z):    8.450000E+00    0.000000E+00    1.250000E-03
     TEMPORAL STATISTIC: RUNNING AVERAGE
 187 ID: h_wall
     QUANTITY: HEAT TRANSFER COEFFICIENT
     Coordinates (X,Y,Z):    8.550000E+00    0.000000E+00    1.250000E-03
     TEMPORAL STATISTIC: RUNNING AVERAGE
 188 ID: h_wall
     QUANTITY: HEAT TRANSFER COEFFICIENT
     Coordinates (X,Y,Z):    8.650000E+00    0.000000E+00    1.250000E-03
     TEMPORAL STATISTIC: RUNNING AVERAGE
 189 ID: h_wall
     QUANTITY: HEAT TRANSFER COEFFICIENT
     Coordinates (X,Y,Z):    8.750000E+00    0.000000E+00    1.250000E-03
     TEMPORAL STATISTIC: RUNNING AVERAGE
 190 ID: h_wall
     QUANTITY: HEAT TRANSFER COEFFICIENT
     Coordinates (X,Y,Z):    8.850000E+00    0.000000E+00    1.250000E-03
     TEMPORAL STATISTIC: RUNNING AVERAGE
 191 ID: h_wall
     QUANTITY: HEAT TRANSFER COEFFICIENT
     Coordinates (X,Y,Z):    8.950000E+00    0.000000E+00    1.250000E-03
     TEMPORAL STATISTIC: RUNNING AVERAGE
 192 ID: h_wall
     QUANTITY: HEAT TRANSFER COEFFICIENT
     Coordinates (X,Y,Z):    9.050000E+00    0.000000E+00    1.250000E-03
     TEMPORAL STATISTIC: RUNNING AVERAGE
 193 ID: h_wall
     QUANTITY: HEAT TRANSFER COEFFICIENT
     Coordinates (X,Y,Z):    9.150000E+00    0.000000E+00    1.250000E-03
     TEMPORAL STATISTIC: RUNNING AVERAGE
 194 ID: h_wall
     QUANTITY: HEAT TRANSFER COEFFICIENT
     Coordinates (X,Y,Z):    9.250000E+00    0.000000E+00    1.250000E-03
     TEMPORAL STATISTIC: RUNNING AVERAGE
 195 ID: h_wall
     QUANTITY: HEAT TRANSFER COEFFICIENT
     Coordinates (X,Y,Z):    9.350000E+00    0.000000E+00    1.250000E-03
     TEMPORAL STATISTIC: RUNNING AVERAGE
 196 ID: h_wall
     QUANTITY: HEAT TRANSFER COEFFICIENT
     Coordinates (X,Y,Z):    9.450000E+00    0.000000E+00    1.250000E-03
     TEMPORAL STATISTIC: RUNNING AVERAGE
 197 ID: h_wall
     QUANTITY: HEAT TRANSFER COEFFICIENT
     Coordinates (X,Y,Z):    9.550000E+00    0.000000E+00    1.250000E-03
     TEMPORAL STATISTIC: RUNNING AVERAGE
 198 ID: h_wall
     QUANTITY: HEAT TRANSFER COEFFICIENT
     Coordinates (X,Y,Z):    9.650000E+00    0.000000E+00    1.250000E-03
     TEMPORAL STATISTIC: RUNNING AVERAGE
 199 ID: h_wall
     QUANTITY: HEAT TRANSFER COEFFICIENT
     Coordinates (X,Y,Z):    9.750000E+00    0.000000E+00    1.250000E-03
     TEMPORAL STATISTIC: RUNNING AVERAGE
 200 ID: h_wall
     QUANTITY: HEAT TRANSFER COEFFICIENT
     Coordinates (X,Y,Z):    9.850000E+00    0.000000E+00    1.250000E-03
     TEMPORAL STATISTIC: RUNNING AVERAGE
 201 ID: h_wall
     QUANTITY: HEAT TRANSFER COEFFICIENT
     Coordinates (X,Y,Z):    9.950000E+00    0.000000E+00    1.250000E-03
     TEMPORAL STATISTIC: RUNNING AVERAGE
 202 ID: T_wall
     QUANTITY: WALL TEMPERATURE
     Coordinates (X,Y,Z):    5.000000E-02    0.000000E+00    1.250000E-03
     TEMPORAL STATISTIC: RUNNING AVERAGE
 203 ID: T_wall
     QUANTITY: WALL TEMPERATURE
     Coordinates (X,Y,Z):    1.500000E-01    0.000000E+00    1.250000E-03
     TEMPORAL STATISTIC: RUNNING AVERAGE
 204 ID: T_wall
     QUANTITY: WALL TEMPERATURE
     Coordinates (X,Y,Z):    2.500000E-01    0.000000E+00    1.250000E-03
     TEMPORAL STATISTIC: RUNNING AVERAGE
 205 ID: T_wall
     QUANTITY: WALL TEMPERATURE
     Coordinates (X,Y,Z):    3.500000E-01    0.000000E+00    1.250000E-03
     TEMPORAL STATISTIC: RUNNING AVERAGE
 206 ID: T_wall
     QUANTITY: WALL TEMPERATURE
     Coordinates (X,Y,Z):    4.500000E-01    0.000000E+00    1.250000E-03
     TEMPORAL STATISTIC: RUNNING AVERAGE
 207 ID: T_wall
     QUANTITY: WALL TEMPERATURE
     Coordinates (X,Y,Z):    5.500000E-01    0.000000E+00    1.250000E-03
     TEMPORAL STATISTIC: RUNNING AVERAGE
 208 ID: T_wall
     QUANTITY: WALL TEMPERATURE
     Coordinates (X,Y,Z):    6.500000E-01    0.000000E+00    1.250000E-03
     TEMPORAL STATISTIC: RUNNING AVERAGE
 209 ID: T_wall
     QUANTITY: WALL TEMPERATURE
     Coordinates (X,Y,Z):    7.500000E-01    0.000000E+00    1.250000E-03
     TEMPORAL STATISTIC: RUNNING AVERAGE
 210 ID: T_wall
     QUANTITY: WALL TEMPERATURE
     Coordinates (X,Y,Z):    8.500000E-01    0.000000E+00    1.250000E-03
     TEMPORAL STATISTIC: RUNNING AVERAGE
 211 ID: T_wall
     QUANTITY: WALL TEMPERATURE
     Coordinates (X,Y,Z):    9.500000E-01    0.000000E+00    1.250000E-03
     TEMPORAL STATISTIC: RUNNING AVERAGE
 212 ID: T_wall
     QUANTITY: WALL TEMPERATURE
     Coordinates (X,Y,Z):    1.050000E+00    0.000000E+00    1.250000E-03
     TEMPORAL STATISTIC: RUNNING AVERAGE
 213 ID: T_wall
     QUANTITY: WALL TEMPERATURE
     Coordinates (X,Y,Z):    1.150000E+00    0.000000E+00    1.250000E-03
     TEMPORAL STATISTIC: RUNNING AVERAGE
 214 ID: T_wall
     QUANTITY: WALL TEMPERATURE
     Coordinates (X,Y,Z):    1.250000E+00    0.000000E+00    1.250000E-03
     TEMPORAL STATISTIC: RUNNING AVERAGE
 215 ID: T_wall
     QUANTITY: WALL TEMPERATURE
     Coordinates (X,Y,Z):    1.350000E+00    0.000000E+00    1.250000E-03
     TEMPORAL STATISTIC: RUNNING AVERAGE
 216 ID: T_wall
     QUANTITY: WALL TEMPERATURE
     Coordinates (X,Y,Z):    1.450000E+00    0.000000E+00    1.250000E-03
     TEMPORAL STATISTIC: RUNNING AVERAGE
 217 ID: T_wall
     QUANTITY: WALL TEMPERATURE
     Coordinates (X,Y,Z):    1.550000E+00    0.000000E+00    1.250000E-03
     TEMPORAL STATISTIC: RUNNING AVERAGE
 218 ID: T_wall
     QUANTITY: WALL TEMPERATURE
     Coordinates (X,Y,Z):    1.650000E+00    0.000000E+00    1.250000E-03
     TEMPORAL STATISTIC: RUNNING AVERAGE
 219 ID: T_wall
     QUANTITY: WALL TEMPERATURE
     Coordinates (X,Y,Z):    1.750000E+00    0.000000E+00    1.250000E-03
     TEMPORAL STATISTIC: RUNNING AVERAGE
 220 ID: T_wall
     QUANTITY: WALL TEMPERATURE
     Coordinates (X,Y,Z):    1.850000E+00    0.000000E+00    1.250000E-03
     TEMPORAL STATISTIC: RUNNING AVERAGE
 221 ID: T_wall
     QUANTITY: WALL TEMPERATURE
     Coordinates (X,Y,Z):    1.950000E+00    0.000000E+00    1.250000E-03
     TEMPORAL STATISTIC: RUNNING AVERAGE
 222 ID: T_wall
     QUANTITY: WALL TEMPERATURE
     Coordinates (X,Y,Z):    2.050000E+00    0.000000E+00    1.250000E-03
     TEMPORAL STATISTIC: RUNNING AVERAGE
 223 ID: T_wall
     QUANTITY: WALL TEMPERATURE
     Coordinates (X,Y,Z):    2.150000E+00    0.000000E+00    1.250000E-03
     TEMPORAL STATISTIC: RUNNING AVERAGE
 224 ID: T_wall
     QUANTITY: WALL TEMPERATURE
     Coordinates (X,Y,Z):    2.250000E+00    0.000000E+00    1.250000E-03
     TEMPORAL STATISTIC: RUNNING AVERAGE
 225 ID: T_wall
     QUANTITY: WALL TEMPERATURE
     Coordinates (X,Y,Z):    2.350000E+00    0.000000E+00    1.250000E-03
     TEMPORAL STATISTIC: RUNNING AVERAGE
 226 ID: T_wall
     QUANTITY: WALL TEMPERATURE
     Coordinates (X,Y,Z):    2.450000E+00    0.000000E+00    1.250000E-03
     TEMPORAL STATISTIC: RUNNING AVERAGE
 227 ID: T_wall
     QUANTITY: WALL TEMPERATURE
     Coordinates (X,Y,Z):    2.550000E+00    0.000000E+00    1.250000E-03
     TEMPORAL STATISTIC: RUNNING AVERAGE
 228 ID: T_wall
     QUANTITY: WALL TEMPERATURE
     Coordinates (X,Y,Z):    2.650000E+00    0.000000E+00    1.250000E-03
     TEMPORAL STATISTIC: RUNNING AVERAGE
 229 ID: T_wall
     QUANTITY: WALL TEMPERATURE
     Coordinates (X,Y,Z):    2.750000E+00    0.000000E+00    1.250000E-03
     TEMPORAL STATISTIC: RUNNING AVERAGE
 230 ID: T_wall
     QUANTITY: WALL TEMPERATURE
     Coordinates (X,Y,Z):    2.850000E+00    0.000000E+00    1.250000E-03
     TEMPORAL STATISTIC: RUNNING AVERAGE
 231 ID: T_wall
     QUANTITY: WALL TEMPERATURE
     Coordinates (X,Y,Z):    2.950000E+00    0.000000E+00    1.250000E-03
     TEMPORAL STATISTIC: RUNNING AVERAGE
 232 ID: T_wall
     QUANTITY: WALL TEMPERATURE
     Coordinates (X,Y,Z):    3.050000E+00    0.000000E+00    1.250000E-03
     TEMPORAL STATISTIC: RUNNING AVERAGE
 233 ID: T_wall
     QUANTITY: WALL TEMPERATURE
     Coordinates (X,Y,Z):    3.150000E+00    0.000000E+00    1.250000E-03
     TEMPORAL STATISTIC: RUNNING AVERAGE
 234 ID: T_wall
     QUANTITY: WALL TEMPERATURE
     Coordinates (X,Y,Z):    3.250000E+00    0.000000E+00    1.250000E-03
     TEMPORAL STATISTIC: RUNNING AVERAGE
 235 ID: T_wall
     QUANTITY: WALL TEMPERATURE
     Coordinates (X,Y,Z):    3.350000E+00    0.000000E+00    1.250000E-03
     TEMPORAL STATISTIC: RUNNING AVERAGE
 236 ID: T_wall
     QUANTITY: WALL TEMPERATURE
     Coordinates (X,Y,Z):    3.450000E+00    0.000000E+00    1.250000E-03
     TEMPORAL STATISTIC: RUNNING AVERAGE
 237 ID: T_wall
     QUANTITY: WALL TEMPERATURE
     Coordinates (X,Y,Z):    3.550000E+00    0.000000E+00    1.250000E-03
     TEMPORAL STATISTIC: RUNNING AVERAGE
 238 ID: T_wall
     QUANTITY: WALL TEMPERATURE
     Coordinates (X,Y,Z):    3.650000E+00    0.000000E+00    1.250000E-03
     TEMPORAL STATISTIC: RUNNING AVERAGE
 239 ID: T_wall
     QUANTITY: WALL TEMPERATURE
     Coordinates (X,Y,Z):    3.750000E+00    0.000000E+00    1.250000E-03
     TEMPORAL STATISTIC: RUNNING AVERAGE
 240 ID: T_wall
     QUANTITY: WALL TEMPERATURE
     Coordinates (X,Y,Z):    3.850000E+00    0.000000E+00    1.250000E-03
     TEMPORAL STATISTIC: RUNNING AVERAGE
 241 ID: T_wall
     QUANTITY: WALL TEMPERATURE
     Coordinates (X,Y,Z):    3.950000E+00    0.000000E+00    1.250000E-03
     TEMPORAL STATISTIC: RUNNING AVERAGE
 242 ID: T_wall
     QUANTITY: WALL TEMPERATURE
     Coordinates (X,Y,Z):    4.050000E+00    0.000000E+00    1.250000E-03
     TEMPORAL STATISTIC: RUNNING AVERAGE
 243 ID: T_wall
     QUANTITY: WALL TEMPERATURE
     Coordinates (X,Y,Z):    4.150000E+00    0.000000E+00    1.250000E-03
     TEMPORAL STATISTIC: RUNNING AVERAGE
 244 ID: T_wall
     QUANTITY: WALL TEMPERATURE
     Coordinates (X,Y,Z):    4.250000E+00    0.000000E+00    1.250000E-03
     TEMPORAL STATISTIC: RUNNING AVERAGE
 245 ID: T_wall
     QUANTITY: WALL TEMPERATURE
     Coordinates (X,Y,Z):    4.350000E+00    0.000000E+00    1.250000E-03
     TEMPORAL STATISTIC: RUNNING AVERAGE
 246 ID: T_wall
     QUANTITY: WALL TEMPERATURE
     Coordinates (X,Y,Z):    4.450000E+00    0.000000E+00    1.250000E-03
     TEMPORAL STATISTIC: RUNNING AVERAGE
 247 ID: T_wall
     QUANTITY: WALL TEMPERATURE
     Coordinates (X,Y,Z):    4.550000E+00    0.000000E+00    1.250000E-03
     TEMPORAL STATISTIC: RUNNING AVERAGE
 248 ID: T_wall
     QUANTITY: WALL TEMPERATURE
     Coordinates (X,Y,Z):    4.650000E+00    0.000000E+00    1.250000E-03
     TEMPORAL STATISTIC: RUNNING AVERAGE
 249 ID: T_wall
     QUANTITY: WALL TEMPERATURE
     Coordinates (X,Y,Z):    4.750000E+00    0.000000E+00    1.250000E-03
     TEMPORAL STATISTIC: RUNNING AVERAGE
 250 ID: T_wall
     QUANTITY: WALL TEMPERATURE
     Coordinates (X,Y,Z):    4.850000E+00    0.000000E+00    1.250000E-03
     TEMPORAL STATISTIC: RUNNING AVERAGE
 251 ID: T_wall
     QUANTITY: WALL TEMPERATURE
     Coordinates (X,Y,Z):    4.950000E+00    0.000000E+00    1.250000E-03
     TEMPORAL STATISTIC: RUNNING AVERAGE
 252 ID: T_wall
     QUANTITY: WALL TEMPERATURE
     Coordinates (X,Y,Z):    5.050000E+00    0.000000E+00    1.250000E-03
     TEMPORAL STATISTIC: RUNNING AVERAGE
 253 ID: T_wall
     QUANTITY: WALL TEMPERATURE
     Coordinates (X,Y,Z):    5.150000E+00    0.000000E+00    1.250000E-03
     TEMPORAL STATISTIC: RUNNING AVERAGE
 254 ID: T_wall
     QUANTITY: WALL TEMPERATURE
     Coordinates (X,Y,Z):    5.250000E+00    0.000000E+00    1.250000E-03
     TEMPORAL STATISTIC: RUNNING AVERAGE
 255 ID: T_wall
     QUANTITY: WALL TEMPERATURE
     Coordinates (X,Y,Z):    5.350000E+00    0.000000E+00    1.250000E-03
     TEMPORAL STATISTIC: RUNNING AVERAGE
 256 ID: T_wall
     QUANTITY: WALL TEMPERATURE
     Coordinates (X,Y,Z):    5.450000E+00    0.000000E+00    1.250000E-03
     TEMPORAL STATISTIC: RUNNING AVERAGE
 257 ID: T_wall
     QUANTITY: WALL TEMPERATURE
     Coordinates (X,Y,Z):    5.550000E+00    0.000000E+00    1.250000E-03
     TEMPORAL STATISTIC: RUNNING AVERAGE
 258 ID: T_wall
     QUANTITY: WALL TEMPERATURE
     Coordinates (X,Y,Z):    5.650000E+00    0.000000E+00    1.250000E-03
     TEMPORAL STATISTIC: RUNNING AVERAGE
 259 ID: T_wall
     QUANTITY: WALL TEMPERATURE
     Coordinates (X,Y,Z):    5.750000E+00    0.000000E+00    1.250000E-03
     TEMPORAL STATISTIC: RUNNING AVERAGE
 260 ID: T_wall
     QUANTITY: WALL TEMPERATURE
     Coordinates (X,Y,Z):    5.850000E+00    0.000000E+00    1.250000E-03
     TEMPORAL STATISTIC: RUNNING AVERAGE
 261 ID: T_wall
     QUANTITY: WALL TEMPERATURE
     Coordinates (X,Y,Z):    5.950000E+00    0.000000E+00    1.250000E-03
     TEMPORAL STATISTIC: RUNNING AVERAGE
 262 ID: T_wall
     QUANTITY: WALL TEMPERATURE
     Coordinates (X,Y,Z):    6.050000E+00    0.000000E+00    1.250000E-03
     TEMPORAL STATISTIC: RUNNING AVERAGE
 263 ID: T_wall
     QUANTITY: WALL TEMPERATURE
     Coordinates (X,Y,Z):    6.150000E+00    0.000000E+00    1.250000E-03
     TEMPORAL STATISTIC: RUNNING AVERAGE
 264 ID: T_wall
     QUANTITY: WALL TEMPERATURE
     Coordinates (X,Y,Z):    6.250000E+00    0.000000E+00    1.250000E-03
     TEMPORAL STATISTIC: RUNNING AVERAGE
 265 ID: T_wall
     QUANTITY: WALL TEMPERATURE
     Coordinates (X,Y,Z):    6.350000E+00    0.000000E+00    1.250000E-03
     TEMPORAL STATISTIC: RUNNING AVERAGE
 266 ID: T_wall
     QUANTITY: WALL TEMPERATURE
     Coordinates (X,Y,Z):    6.450000E+00    0.000000E+00    1.250000E-03
     TEMPORAL STATISTIC: RUNNING AVERAGE
 267 ID: T_wall
     QUANTITY: WALL TEMPERATURE
     Coordinates (X,Y,Z):    6.550000E+00    0.000000E+00    1.250000E-03
     TEMPORAL STATISTIC: RUNNING AVERAGE
 268 ID: T_wall
     QUANTITY: WALL TEMPERATURE
     Coordinates (X,Y,Z):    6.650000E+00    0.000000E+00    1.250000E-03
     TEMPORAL STATISTIC: RUNNING AVERAGE
 269 ID: T_wall
     QUANTITY: WALL TEMPERATURE
     Coordinates (X,Y,Z):    6.750000E+00    0.000000E+00    1.250000E-03
     TEMPORAL STATISTIC: RUNNING AVERAGE
 270 ID: T_wall
     QUANTITY: WALL TEMPERATURE
     Coordinates (X,Y,Z):    6.850000E+00    0.000000E+00    1.250000E-03
     TEMPORAL STATISTIC: RUNNING AVERAGE
 271 ID: T_wall
     QUANTITY: WALL TEMPERATURE
     Coordinates (X,Y,Z):    6.950000E+00    0.000000E+00    1.250000E-03
     TEMPORAL STATISTIC: RUNNING AVERAGE
 272 ID: T_wall
     QUANTITY: WALL TEMPERATURE
     Coordinates (X,Y,Z):    7.050000E+00    0.000000E+00    1.250000E-03
     TEMPORAL STATISTIC: RUNNING AVERAGE
 273 ID: T_wall
     QUANTITY: WALL TEMPERATURE
     Coordinates (X,Y,Z):    7.150000E+00    0.000000E+00    1.250000E-03
     TEMPORAL STATISTIC: RUNNING AVERAGE
 274 ID: T_wall
     QUANTITY: WALL TEMPERATURE
     Coordinates (X,Y,Z):    7.250000E+00    0.000000E+00    1.250000E-03
     TEMPORAL STATISTIC: RUNNING AVERAGE
 275 ID: T_wall
     QUANTITY: WALL TEMPERATURE
     Coordinates (X,Y,Z):    7.350000E+00    0.000000E+00    1.250000E-03
     TEMPORAL STATISTIC: RUNNING AVERAGE
 276 ID: T_wall
     QUANTITY: WALL TEMPERATURE
     Coordinates (X,Y,Z):    7.450000E+00    0.000000E+00    1.250000E-03
     TEMPORAL STATISTIC: RUNNING AVERAGE
 277 ID: T_wall
     QUANTITY: WALL TEMPERATURE
     Coordinates (X,Y,Z):    7.550000E+00    0.000000E+00    1.250000E-03
     TEMPORAL STATISTIC: RUNNING AVERAGE
 278 ID: T_wall
     QUANTITY: WALL TEMPERATURE
     Coordinates (X,Y,Z):    7.650000E+00    0.000000E+00    1.250000E-03
     TEMPORAL STATISTIC: RUNNING AVERAGE
 279 ID: T_wall
     QUANTITY: WALL TEMPERATURE
     Coordinates (X,Y,Z):    7.750000E+00    0.000000E+00    1.250000E-03
     TEMPORAL STATISTIC: RUNNING AVERAGE
 280 ID: T_wall
     QUANTITY: WALL TEMPERATURE
     Coordinates (X,Y,Z):    7.850000E+00    0.000000E+00    1.250000E-03
     TEMPORAL STATISTIC: RUNNING AVERAGE
 281 ID: T_wall
     QUANTITY: WALL TEMPERATURE
     Coordinates (X,Y,Z):    7.950000E+00    0.000000E+00    1.250000E-03
     TEMPORAL STATISTIC: RUNNING AVERAGE
 282 ID: T_wall
     QUANTITY: WALL TEMPERATURE
     Coordinates (X,Y,Z):    8.050000E+00    0.000000E+00    1.250000E-03
     TEMPORAL STATISTIC: RUNNING AVERAGE
 283 ID: T_wall
     QUANTITY: WALL TEMPERATURE
     Coordinates (X,Y,Z):    8.150000E+00    0.000000E+00    1.250000E-03
     TEMPORAL STATISTIC: RUNNING AVERAGE
 284 ID: T_wall
     QUANTITY: WALL TEMPERATURE
     Coordinates (X,Y,Z):    8.250000E+00    0.000000E+00    1.250000E-03
     TEMPORAL STATISTIC: RUNNING AVERAGE
 285 ID: T_wall
     QUANTITY: WALL TEMPERATURE
     Coordinates (X,Y,Z):    8.350000E+00    0.000000E+00    1.250000E-03
     TEMPORAL STATISTIC: RUNNING AVERAGE
 286 ID: T_wall
     QUANTITY: WALL TEMPERATURE
     Coordinates (X,Y,Z):    8.450000E+00    0.000000E+00    1.250000E-03
     TEMPORAL STATISTIC: RUNNING AVERAGE
 287 ID: T_wall
     QUANTITY: WALL TEMPERATURE
     Coordinates (X,Y,Z):    8.550000E+00    0.000000E+00    1.250000E-03
     TEMPORAL STATISTIC: RUNNING AVERAGE
 288 ID: T_wall
     QUANTITY: WALL TEMPERATURE
     Coordinates (X,Y,Z):    8.650000E+00    0.000000E+00    1.250000E-03
     TEMPORAL STATISTIC: RUNNING AVERAGE
 289 ID: T_wall
     QUANTITY: WALL TEMPERATURE
     Coordinates (X,Y,Z):    8.750000E+00    0.000000E+00    1.250000E-03
     TEMPORAL STATISTIC: RUNNING AVERAGE
 290 ID: T_wall
     QUANTITY: WALL TEMPERATURE
     Coordinates (X,Y,Z):    8.850000E+00    0.000000E+00    1.250000E-03
     TEMPORAL STATISTIC: RUNNING AVERAGE
 291 ID: T_wall
     QUANTITY: WALL TEMPERATURE
     Coordinates (X,Y,Z):    8.950000E+00    0.000000E+00    1.250000E-03
     TEMPORAL STATISTIC: RUNNING AVERAGE
 292 ID: T_wall
     QUANTITY: WALL TEMPERATURE
     Coordinates (X,Y,Z):    9.050000E+00    0.000000E+00    1.250000E-03
     TEMPORAL STATISTIC: RUNNING AVERAGE
 293 ID: T_wall
     QUANTITY: WALL TEMPERATURE
     Coordinates (X,Y,Z):    9.150000E+00    0.000000E+00    1.250000E-03
     TEMPORAL STATISTIC: RUNNING AVERAGE
 294 ID: T_wall
     QUANTITY: WALL TEMPERATURE
     Coordinates (X,Y,Z):    9.250000E+00    0.000000E+00    1.250000E-03
     TEMPORAL STATISTIC: RUNNING AVERAGE
 295 ID: T_wall
     QUANTITY: WALL TEMPERATURE
     Coordinates (X,Y,Z):    9.350000E+00    0.000000E+00    1.250000E-03
     TEMPORAL STATISTIC: RUNNING AVERAGE
 296 ID: T_wall
     QUANTITY: WALL TEMPERATURE
     Coordinates (X,Y,Z):    9.450000E+00    0.000000E+00    1.250000E-03
     TEMPORAL STATISTIC: RUNNING AVERAGE
 297 ID: T_wall
     QUANTITY: WALL TEMPERATURE
     Coordinates (X,Y,Z):    9.550000E+00    0.000000E+00    1.250000E-03
     TEMPORAL STATISTIC: RUNNING AVERAGE
 298 ID: T_wall
     QUANTITY: WALL TEMPERATURE
     Coordinates (X,Y,Z):    9.650000E+00    0.000000E+00    1.250000E-03
     TEMPORAL STATISTIC: RUNNING AVERAGE
 299 ID: T_wall
     QUANTITY: WALL TEMPERATURE
     Coordinates (X,Y,Z):    9.750000E+00    0.000000E+00    1.250000E-03
     TEMPORAL STATISTIC: RUNNING AVERAGE
 300 ID: T_wall
     QUANTITY: WALL TEMPERATURE
     Coordinates (X,Y,Z):    9.850000E+00    0.000000E+00    1.250000E-03
     TEMPORAL STATISTIC: RUNNING AVERAGE
 301 ID: T_wall
     QUANTITY: WALL TEMPERATURE
     Coordinates (X,Y,Z):    9.950000E+00    0.000000E+00    1.250000E-03
     TEMPORAL STATISTIC: RUNNING AVERAGE
 302 ID: T_gas
     QUANTITY: GAS TEMPERATURE
     Coordinates (X,Y,Z):    5.000000E-02    0.000000E+00    1.250000E-03
     TEMPORAL STATISTIC: RUNNING AVERAGE
 303 ID: T_gas
     QUANTITY: GAS TEMPERATURE
     Coordinates (X,Y,Z):    1.500000E-01    0.000000E+00    1.250000E-03
     TEMPORAL STATISTIC: RUNNING AVERAGE
 304 ID: T_gas
     QUANTITY: GAS TEMPERATURE
     Coordinates (X,Y,Z):    2.500000E-01    0.000000E+00    1.250000E-03
     TEMPORAL STATISTIC: RUNNING AVERAGE
 305 ID: T_gas
     QUANTITY: GAS TEMPERATURE
     Coordinates (X,Y,Z):    3.500000E-01    0.000000E+00    1.250000E-03
     TEMPORAL STATISTIC: RUNNING AVERAGE
 306 ID: T_gas
     QUANTITY: GAS TEMPERATURE
     Coordinates (X,Y,Z):    4.500000E-01    0.000000E+00    1.250000E-03
     TEMPORAL STATISTIC: RUNNING AVERAGE
 307 ID: T_gas
     QUANTITY: GAS TEMPERATURE
     Coordinates (X,Y,Z):    5.500000E-01    0.000000E+00    1.250000E-03
     TEMPORAL STATISTIC: RUNNING AVERAGE
 308 ID: T_gas
     QUANTITY: GAS TEMPERATURE
     Coordinates (X,Y,Z):    6.500000E-01    0.000000E+00    1.250000E-03
     TEMPORAL STATISTIC: RUNNING AVERAGE
 309 ID: T_gas
     QUANTITY: GAS TEMPERATURE
     Coordinates (X,Y,Z):    7.500000E-01    0.000000E+00    1.250000E-03
     TEMPORAL STATISTIC: RUNNING AVERAGE
 310 ID: T_gas
     QUANTITY: GAS TEMPERATURE
     Coordinates (X,Y,Z):    8.500000E-01    0.000000E+00    1.250000E-03
     TEMPORAL STATISTIC: RUNNING AVERAGE
 311 ID: T_gas
     QUANTITY: GAS TEMPERATURE
     Coordinates (X,Y,Z):    9.500000E-01    0.000000E+00    1.250000E-03
     TEMPORAL STATISTIC: RUNNING AVERAGE
 312 ID: T_gas
     QUANTITY: GAS TEMPERATURE
     Coordinates (X,Y,Z):    1.050000E+00    0.000000E+00    1.250000E-03
     TEMPORAL STATISTIC: RUNNING AVERAGE
 313 ID: T_gas
     QUANTITY: GAS TEMPERATURE
     Coordinates (X,Y,Z):    1.150000E+00    0.000000E+00    1.250000E-03
     TEMPORAL STATISTIC: RUNNING AVERAGE
 314 ID: T_gas
     QUANTITY: GAS TEMPERATURE
     Coordinates (X,Y,Z):    1.250000E+00    0.000000E+00    1.250000E-03
     TEMPORAL STATISTIC: RUNNING AVERAGE
 315 ID: T_gas
     QUANTITY: GAS TEMPERATURE
     Coordinates (X,Y,Z):    1.350000E+00    0.000000E+00    1.250000E-03
     TEMPORAL STATISTIC: RUNNING AVERAGE
 316 ID: T_gas
     QUANTITY: GAS TEMPERATURE
     Coordinates (X,Y,Z):    1.450000E+00    0.000000E+00    1.250000E-03
     TEMPORAL STATISTIC: RUNNING AVERAGE
 317 ID: T_gas
     QUANTITY: GAS TEMPERATURE
     Coordinates (X,Y,Z):    1.550000E+00    0.000000E+00    1.250000E-03
     TEMPORAL STATISTIC: RUNNING AVERAGE
 318 ID: T_gas
     QUANTITY: GAS TEMPERATURE
     Coordinates (X,Y,Z):    1.650000E+00    0.000000E+00    1.250000E-03
     TEMPORAL STATISTIC: RUNNING AVERAGE
 319 ID: T_gas
     QUANTITY: GAS TEMPERATURE
     Coordinates (X,Y,Z):    1.750000E+00    0.000000E+00    1.250000E-03
     TEMPORAL STATISTIC: RUNNING AVERAGE
 320 ID: T_gas
     QUANTITY: GAS TEMPERATURE
     Coordinates (X,Y,Z):    1.850000E+00    0.000000E+00    1.250000E-03
     TEMPORAL STATISTIC: RUNNING AVERAGE
 321 ID: T_gas
     QUANTITY: GAS TEMPERATURE
     Coordinates (X,Y,Z):    1.950000E+00    0.000000E+00    1.250000E-03
     TEMPORAL STATISTIC: RUNNING AVERAGE
 322 ID: T_gas
     QUANTITY: GAS TEMPERATURE
     Coordinates (X,Y,Z):    2.050000E+00    0.000000E+00    1.250000E-03
     TEMPORAL STATISTIC: RUNNING AVERAGE
 323 ID: T_gas
     QUANTITY: GAS TEMPERATURE
     Coordinates (X,Y,Z):    2.150000E+00    0.000000E+00    1.250000E-03
     TEMPORAL STATISTIC: RUNNING AVERAGE
 324 ID: T_gas
     QUANTITY: GAS TEMPERATURE
     Coordinates (X,Y,Z):    2.250000E+00    0.000000E+00    1.250000E-03
     TEMPORAL STATISTIC: RUNNING AVERAGE
 325 ID: T_gas
     QUANTITY: GAS TEMPERATURE
     Coordinates (X,Y,Z):    2.350000E+00    0.000000E+00    1.250000E-03
     TEMPORAL STATISTIC: RUNNING AVERAGE
 326 ID: T_gas
     QUANTITY: GAS TEMPERATURE
     Coordinates (X,Y,Z):    2.450000E+00    0.000000E+00    1.250000E-03
     TEMPORAL STATISTIC: RUNNING AVERAGE
 327 ID: T_gas
     QUANTITY: GAS TEMPERATURE
     Coordinates (X,Y,Z):    2.550000E+00    0.000000E+00    1.250000E-03
     TEMPORAL STATISTIC: RUNNING AVERAGE
 328 ID: T_gas
     QUANTITY: GAS TEMPERATURE
     Coordinates (X,Y,Z):    2.650000E+00    0.000000E+00    1.250000E-03
     TEMPORAL STATISTIC: RUNNING AVERAGE
 329 ID: T_gas
     QUANTITY: GAS TEMPERATURE
     Coordinates (X,Y,Z):    2.750000E+00    0.000000E+00    1.250000E-03
     TEMPORAL STATISTIC: RUNNING AVERAGE
 330 ID: T_gas
     QUANTITY: GAS TEMPERATURE
     Coordinates (X,Y,Z):    2.850000E+00    0.000000E+00    1.250000E-03
     TEMPORAL STATISTIC: RUNNING AVERAGE
 331 ID: T_gas
     QUANTITY: GAS TEMPERATURE
     Coordinates (X,Y,Z):    2.950000E+00    0.000000E+00    1.250000E-03
     TEMPORAL STATISTIC: RUNNING AVERAGE
 332 ID: T_gas
     QUANTITY: GAS TEMPERATURE
     Coordinates (X,Y,Z):    3.050000E+00    0.000000E+00    1.250000E-03
     TEMPORAL STATISTIC: RUNNING AVERAGE
 333 ID: T_gas
     QUANTITY: GAS TEMPERATURE
     Coordinates (X,Y,Z):    3.150000E+00    0.000000E+00    1.250000E-03
     TEMPORAL STATISTIC: RUNNING AVERAGE
 334 ID: T_gas
     QUANTITY: GAS TEMPERATURE
     Coordinates (X,Y,Z):    3.250000E+00    0.000000E+00    1.250000E-03
     TEMPORAL STATISTIC: RUNNING AVERAGE
 335 ID: T_gas
     QUANTITY: GAS TEMPERATURE
     Coordinates (X,Y,Z):    3.350000E+00    0.000000E+00    1.250000E-03
     TEMPORAL STATISTIC: RUNNING AVERAGE
 336 ID: T_gas
     QUANTITY: GAS TEMPERATURE
     Coordinates (X,Y,Z):    3.450000E+00    0.000000E+00    1.250000E-03
     TEMPORAL STATISTIC: RUNNING AVERAGE
 337 ID: T_gas
     QUANTITY: GAS TEMPERATURE
     Coordinates (X,Y,Z):    3.550000E+00    0.000000E+00    1.250000E-03
     TEMPORAL STATISTIC: RUNNING AVERAGE
 338 ID: T_gas
     QUANTITY: GAS TEMPERATURE
     Coordinates (X,Y,Z):    3.650000E+00    0.000000E+00    1.250000E-03
     TEMPORAL STATISTIC: RUNNING AVERAGE
 339 ID: T_gas
     QUANTITY: GAS TEMPERATURE
     Coordinates (X,Y,Z):    3.750000E+00    0.000000E+00    1.250000E-03
     TEMPORAL STATISTIC: RUNNING AVERAGE
 340 ID: T_gas
     QUANTITY: GAS TEMPERATURE
     Coordinates (X,Y,Z):    3.850000E+00    0.000000E+00    1.250000E-03
     TEMPORAL STATISTIC: RUNNING AVERAGE
 341 ID: T_gas
     QUANTITY: GAS TEMPERATURE
     Coordinates (X,Y,Z):    3.950000E+00    0.000000E+00    1.250000E-03
     TEMPORAL STATISTIC: RUNNING AVERAGE
 342 ID: T_gas
     QUANTITY: GAS TEMPERATURE
     Coordinates (X,Y,Z):    4.050000E+00    0.000000E+00    1.250000E-03
     TEMPORAL STATISTIC: RUNNING AVERAGE
 343 ID: T_gas
     QUANTITY: GAS TEMPERATURE
     Coordinates (X,Y,Z):    4.150000E+00    0.000000E+00    1.250000E-03
     TEMPORAL STATISTIC: RUNNING AVERAGE
 344 ID: T_gas
     QUANTITY: GAS TEMPERATURE
     Coordinates (X,Y,Z):    4.250000E+00    0.000000E+00    1.250000E-03
     TEMPORAL STATISTIC: RUNNING AVERAGE
 345 ID: T_gas
     QUANTITY: GAS TEMPERATURE
     Coordinates (X,Y,Z):    4.350000E+00    0.000000E+00    1.250000E-03
     TEMPORAL STATISTIC: RUNNING AVERAGE
 346 ID: T_gas
     QUANTITY: GAS TEMPERATURE
     Coordinates (X,Y,Z):    4.450000E+00    0.000000E+00    1.250000E-03
     TEMPORAL STATISTIC: RUNNING AVERAGE
 347 ID: T_gas
     QUANTITY: GAS TEMPERATURE
     Coordinates (X,Y,Z):    4.550000E+00    0.000000E+00    1.250000E-03
     TEMPORAL STATISTIC: RUNNING AVERAGE
 348 ID: T_gas
     QUANTITY: GAS TEMPERATURE
     Coordinates (X,Y,Z):    4.650000E+00    0.000000E+00    1.250000E-03
     TEMPORAL STATISTIC: RUNNING AVERAGE
 349 ID: T_gas
     QUANTITY: GAS TEMPERATURE
     Coordinates (X,Y,Z):    4.750000E+00    0.000000E+00    1.250000E-03
     TEMPORAL STATISTIC: RUNNING AVERAGE
 350 ID: T_gas
     QUANTITY: GAS TEMPERATURE
     Coordinates (X,Y,Z):    4.850000E+00    0.000000E+00    1.250000E-03
     TEMPORAL STATISTIC: RUNNING AVERAGE
 351 ID: T_gas
     QUANTITY: GAS TEMPERATURE
     Coordinates (X,Y,Z):    4.950000E+00    0.000000E+00    1.250000E-03
     TEMPORAL STATISTIC: RUNNING AVERAGE
 352 ID: T_gas
     QUANTITY: GAS TEMPERATURE
     Coordinates (X,Y,Z):    5.050000E+00    0.000000E+00    1.250000E-03
     TEMPORAL STATISTIC: RUNNING AVERAGE
 353 ID: T_gas
     QUANTITY: GAS TEMPERATURE
     Coordinates (X,Y,Z):    5.150000E+00    0.000000E+00    1.250000E-03
     TEMPORAL STATISTIC: RUNNING AVERAGE
 354 ID: T_gas
     QUANTITY: GAS TEMPERATURE
     Coordinates (X,Y,Z):    5.250000E+00    0.000000E+00    1.250000E-03
     TEMPORAL STATISTIC: RUNNING AVERAGE
 355 ID: T_gas
     QUANTITY: GAS TEMPERATURE
     Coordinates (X,Y,Z):    5.350000E+00    0.000000E+00    1.250000E-03
     TEMPORAL STATISTIC: RUNNING AVERAGE
 356 ID: T_gas
     QUANTITY: GAS TEMPERATURE
     Coordinates (X,Y,Z):    5.450000E+00    0.000000E+00    1.250000E-03
     TEMPORAL STATISTIC: RUNNING AVERAGE
 357 ID: T_gas
     QUANTITY: GAS TEMPERATURE
     Coordinates (X,Y,Z):    5.550000E+00    0.000000E+00    1.250000E-03
     TEMPORAL STATISTIC: RUNNING AVERAGE
 358 ID: T_gas
     QUANTITY: GAS TEMPERATURE
     Coordinates (X,Y,Z):    5.650000E+00    0.000000E+00    1.250000E-03
     TEMPORAL STATISTIC: RUNNING AVERAGE
 359 ID: T_gas
     QUANTITY: GAS TEMPERATURE
     Coordinates (X,Y,Z):    5.750000E+00    0.000000E+00    1.250000E-03
     TEMPORAL STATISTIC: RUNNING AVERAGE
 360 ID: T_gas
     QUANTITY: GAS TEMPERATURE
     Coordinates (X,Y,Z):    5.850000E+00    0.000000E+00    1.250000E-03
     TEMPORAL STATISTIC: RUNNING AVERAGE
 361 ID: T_gas
     QUANTITY: GAS TEMPERATURE
     Coordinates (X,Y,Z):    5.950000E+00    0.000000E+00    1.250000E-03
     TEMPORAL STATISTIC: RUNNING AVERAGE
 362 ID: T_gas
     QUANTITY: GAS TEMPERATURE
     Coordinates (X,Y,Z):    6.050000E+00    0.000000E+00    1.250000E-03
     TEMPORAL STATISTIC: RUNNING AVERAGE
 363 ID: T_gas
     QUANTITY: GAS TEMPERATURE
     Coordinates (X,Y,Z):    6.150000E+00    0.000000E+00    1.250000E-03
     TEMPORAL STATISTIC: RUNNING AVERAGE
 364 ID: T_gas
     QUANTITY: GAS TEMPERATURE
     Coordinates (X,Y,Z):    6.250000E+00    0.000000E+00    1.250000E-03
     TEMPORAL STATISTIC: RUNNING AVERAGE
 365 ID: T_gas
     QUANTITY: GAS TEMPERATURE
     Coordinates (X,Y,Z):    6.350000E+00    0.000000E+00    1.250000E-03
     TEMPORAL STATISTIC: RUNNING AVERAGE
 366 ID: T_gas
     QUANTITY: GAS TEMPERATURE
     Coordinates (X,Y,Z):    6.450000E+00    0.000000E+00    1.250000E-03
     TEMPORAL STATISTIC: RUNNING AVERAGE
 367 ID: T_gas
     QUANTITY: GAS TEMPERATURE
     Coordinates (X,Y,Z):    6.550000E+00    0.000000E+00    1.250000E-03
     TEMPORAL STATISTIC: RUNNING AVERAGE
 368 ID: T_gas
     QUANTITY: GAS TEMPERATURE
     Coordinates (X,Y,Z):    6.650000E+00    0.000000E+00    1.250000E-03
     TEMPORAL STATISTIC: RUNNING AVERAGE
 369 ID: T_gas
     QUANTITY: GAS TEMPERATURE
     Coordinates (X,Y,Z):    6.750000E+00    0.000000E+00    1.250000E-03
     TEMPORAL STATISTIC: RUNNING AVERAGE
 370 ID: T_gas
     QUANTITY: GAS TEMPERATURE
     Coordinates (X,Y,Z):    6.850000E+00    0.000000E+00    1.250000E-03
     TEMPORAL STATISTIC: RUNNING AVERAGE
 371 ID: T_gas
     QUANTITY: GAS TEMPERATURE
     Coordinates (X,Y,Z):    6.950000E+00    0.000000E+00    1.250000E-03
     TEMPORAL STATISTIC: RUNNING AVERAGE
 372 ID: T_gas
     QUANTITY: GAS TEMPERATURE
     Coordinates (X,Y,Z):    7.050000E+00    0.000000E+00    1.250000E-03
     TEMPORAL STATISTIC: RUNNING AVERAGE
 373 ID: T_gas
     QUANTITY: GAS TEMPERATURE
     Coordinates (X,Y,Z):    7.150000E+00    0.000000E+00    1.250000E-03
     TEMPORAL STATISTIC: RUNNING AVERAGE
 374 ID: T_gas
     QUANTITY: GAS TEMPERATURE
     Coordinates (X,Y,Z):    7.250000E+00    0.000000E+00    1.250000E-03
     TEMPORAL STATISTIC: RUNNING AVERAGE
 375 ID: T_gas
     QUANTITY: GAS TEMPERATURE
     Coordinates (X,Y,Z):    7.350000E+00    0.000000E+00    1.250000E-03
     TEMPORAL STATISTIC: RUNNING AVERAGE
 376 ID: T_gas
     QUANTITY: GAS TEMPERATURE
     Coordinates (X,Y,Z):    7.450000E+00    0.000000E+00    1.250000E-03
     TEMPORAL STATISTIC: RUNNING AVERAGE
 377 ID: T_gas
     QUANTITY: GAS TEMPERATURE
     Coordinates (X,Y,Z):    7.550000E+00    0.000000E+00    1.250000E-03
     TEMPORAL STATISTIC: RUNNING AVERAGE
 378 ID: T_gas
     QUANTITY: GAS TEMPERATURE
     Coordinates (X,Y,Z):    7.650000E+00    0.000000E+00    1.250000E-03
     TEMPORAL STATISTIC: RUNNING AVERAGE
 379 ID: T_gas
     QUANTITY: GAS TEMPERATURE
     Coordinates (X,Y,Z):    7.750000E+00    0.000000E+00    1.250000E-03
     TEMPORAL STATISTIC: RUNNING AVERAGE
 380 ID: T_gas
     QUANTITY: GAS TEMPERATURE
     Coordinates (X,Y,Z):    7.850000E+00    0.000000E+00    1.250000E-03
     TEMPORAL STATISTIC: RUNNING AVERAGE
 381 ID: T_gas
     QUANTITY: GAS TEMPERATURE
     Coordinates (X,Y,Z):    7.950000E+00    0.000000E+00    1.250000E-03
     TEMPORAL STATISTIC: RUNNING AVERAGE
 382 ID: T_gas
     QUANTITY: GAS TEMPERATURE
     Coordinates (X,Y,Z):    8.050000E+00    0.000000E+00    1.250000E-03
     TEMPORAL STATISTIC: RUNNING AVERAGE
 383 ID: T_gas
     QUANTITY: GAS TEMPERATURE
     Coordinates (X,Y,Z):    8.150000E+00    0.000000E+00    1.250000E-03
     TEMPORAL STATISTIC: RUNNING AVERAGE
 384 ID: T_gas
     QUANTITY: GAS TEMPERATURE
     Coordinates (X,Y,Z):    8.250000E+00    0.000000E+00    1.250000E-03
     TEMPORAL STATISTIC: RUNNING AVERAGE
 385 ID: T_gas
     QUANTITY: GAS TEMPERATURE
     Coordinates (X,Y,Z):    8.350000E+00    0.000000E+00    1.250000E-03
     TEMPORAL STATISTIC: RUNNING AVERAGE
 386 ID: T_gas
     QUANTITY: GAS TEMPERATURE
     Coordinates (X,Y,Z):    8.450000E+00    0.000000E+00    1.250000E-03
     TEMPORAL STATISTIC: RUNNING AVERAGE
 387 ID: T_gas
     QUANTITY: GAS TEMPERATURE
     Coordinates (X,Y,Z):    8.550000E+00    0.000000E+00    1.250000E-03
     TEMPORAL STATISTIC: RUNNING AVERAGE
 388 ID: T_gas
     QUANTITY: GAS TEMPERATURE
     Coordinates (X,Y,Z):    8.650000E+00    0.000000E+00    1.250000E-03
     TEMPORAL STATISTIC: RUNNING AVERAGE
 389 ID: T_gas
     QUANTITY: GAS TEMPERATURE
     Coordinates (X,Y,Z):    8.750000E+00    0.000000E+00    1.250000E-03
     TEMPORAL STATISTIC: RUNNING AVERAGE
 390 ID: T_gas
     QUANTITY: GAS TEMPERATURE
     Coordinates (X,Y,Z):    8.850000E+00    0.000000E+00    1.250000E-03
     TEMPORAL STATISTIC: RUNNING AVERAGE
 391 ID: T_gas
     QUANTITY: GAS TEMPERATURE
     Coordinates (X,Y,Z):    8.950000E+00    0.000000E+00    1.250000E-03
     TEMPORAL STATISTIC: RUNNING AVERAGE
 392 ID: T_gas
     QUANTITY: GAS TEMPERATURE
     Coordinates (X,Y,Z):    9.050000E+00    0.000000E+00    1.250000E-03
     TEMPORAL STATISTIC: RUNNING AVERAGE
 393 ID: T_gas
     QUANTITY: GAS TEMPERATURE
     Coordinates (X,Y,Z):    9.150000E+00    0.000000E+00    1.250000E-03
     TEMPORAL STATISTIC: RUNNING AVERAGE
 394 ID: T_gas
     QUANTITY: GAS TEMPERATURE
     Coordinates (X,Y,Z):    9.250000E+00    0.000000E+00    1.250000E-03
     TEMPORAL STATISTIC: RUNNING AVERAGE
 395 ID: T_gas
     QUANTITY: GAS TEMPERATURE
     Coordinates (X,Y,Z):    9.350000E+00    0.000000E+00    1.250000E-03
     TEMPORAL STATISTIC: RUNNING AVERAGE
 396 ID: T_gas
     QUANTITY: GAS TEMPERATURE
     Coordinates (X,Y,Z):    9.450000E+00    0.000000E+00    1.250000E-03
     TEMPORAL STATISTIC: RUNNING AVERAGE
 397 ID: T_gas
     QUANTITY: GAS TEMPERATURE
     Coordinates (X,Y,Z):    9.550000E+00    0.000000E+00    1.250000E-03
     TEMPORAL STATISTIC: RUNNING AVERAGE
 398 ID: T_gas
     QUANTITY: GAS TEMPERATURE
     Coordinates (X,Y,Z):    9.650000E+00    0.000000E+00    1.250000E-03
     TEMPORAL STATISTIC: RUNNING AVERAGE
 399 ID: T_gas
     QUANTITY: GAS TEMPERATURE
     Coordinates (X,Y,Z):    9.750000E+00    0.000000E+00    1.250000E-03
     TEMPORAL STATISTIC: RUNNING AVERAGE
 400 ID: T_gas
     QUANTITY: GAS TEMPERATURE
     Coordinates (X,Y,Z):    9.850000E+00    0.000000E+00    1.250000E-03
     TEMPORAL STATISTIC: RUNNING AVERAGE
 401 ID: T_gas
     QUANTITY: GAS TEMPERATURE
     Coordinates (X,Y,Z):    9.950000E+00    0.000000E+00    1.250000E-03
     TEMPORAL STATISTIC: RUNNING AVERAGE
 402 ID: mu_wall
     QUANTITY: VISCOSITY
     Coordinates (X,Y,Z):    5.000000E-02    0.000000E+00    1.000000E-03
     TEMPORAL STATISTIC: RUNNING AVERAGE
 403 ID: mu_wall
     QUANTITY: VISCOSITY
     Coordinates (X,Y,Z):    1.500000E-01    0.000000E+00    1.000000E-03
     TEMPORAL STATISTIC: RUNNING AVERAGE
 404 ID: mu_wall
     QUANTITY: VISCOSITY
     Coordinates (X,Y,Z):    2.500000E-01    0.000000E+00    1.000000E-03
     TEMPORAL STATISTIC: RUNNING AVERAGE
 405 ID: mu_wall
     QUANTITY: VISCOSITY
     Coordinates (X,Y,Z):    3.500000E-01    0.000000E+00    1.000000E-03
     TEMPORAL STATISTIC: RUNNING AVERAGE
 406 ID: mu_wall
     QUANTITY: VISCOSITY
     Coordinates (X,Y,Z):    4.500000E-01    0.000000E+00    1.000000E-03
     TEMPORAL STATISTIC: RUNNING AVERAGE
 407 ID: mu_wall
     QUANTITY: VISCOSITY
     Coordinates (X,Y,Z):    5.500000E-01    0.000000E+00    1.000000E-03
     TEMPORAL STATISTIC: RUNNING AVERAGE
 408 ID: mu_wall
     QUANTITY: VISCOSITY
     Coordinates (X,Y,Z):    6.500000E-01    0.000000E+00    1.000000E-03
     TEMPORAL STATISTIC: RUNNING AVERAGE
 409 ID: mu_wall
     QUANTITY: VISCOSITY
     Coordinates (X,Y,Z):    7.500000E-01    0.000000E+00    1.000000E-03
     TEMPORAL STATISTIC: RUNNING AVERAGE
 410 ID: mu_wall
     QUANTITY: VISCOSITY
     Coordinates (X,Y,Z):    8.500000E-01    0.000000E+00    1.000000E-03
     TEMPORAL STATISTIC: RUNNING AVERAGE
 411 ID: mu_wall
     QUANTITY: VISCOSITY
     Coordinates (X,Y,Z):    9.500000E-01    0.000000E+00    1.000000E-03
     TEMPORAL STATISTIC: RUNNING AVERAGE
 412 ID: mu_wall
     QUANTITY: VISCOSITY
     Coordinates (X,Y,Z):    1.050000E+00    0.000000E+00    1.000000E-03
     TEMPORAL STATISTIC: RUNNING AVERAGE
 413 ID: mu_wall
     QUANTITY: VISCOSITY
     Coordinates (X,Y,Z):    1.150000E+00    0.000000E+00    1.000000E-03
     TEMPORAL STATISTIC: RUNNING AVERAGE
 414 ID: mu_wall
     QUANTITY: VISCOSITY
     Coordinates (X,Y,Z):    1.250000E+00    0.000000E+00    1.000000E-03
     TEMPORAL STATISTIC: RUNNING AVERAGE
 415 ID: mu_wall
     QUANTITY: VISCOSITY
     Coordinates (X,Y,Z):    1.350000E+00    0.000000E+00    1.000000E-03
     TEMPORAL STATISTIC: RUNNING AVERAGE
 416 ID: mu_wall
     QUANTITY: VISCOSITY
     Coordinates (X,Y,Z):    1.450000E+00    0.000000E+00    1.000000E-03
     TEMPORAL STATISTIC: RUNNING AVERAGE
 417 ID: mu_wall
     QUANTITY: VISCOSITY
     Coordinates (X,Y,Z):    1.550000E+00    0.000000E+00    1.000000E-03
     TEMPORAL STATISTIC: RUNNING AVERAGE
 418 ID: mu_wall
     QUANTITY: VISCOSITY
     Coordinates (X,Y,Z):    1.650000E+00    0.000000E+00    1.000000E-03
     TEMPORAL STATISTIC: RUNNING AVERAGE
 419 ID: mu_wall
     QUANTITY: VISCOSITY
     Coordinates (X,Y,Z):    1.750000E+00    0.000000E+00    1.000000E-03
     TEMPORAL STATISTIC: RUNNING AVERAGE
 420 ID: mu_wall
     QUANTITY: VISCOSITY
     Coordinates (X,Y,Z):    1.850000E+00    0.000000E+00    1.000000E-03
     TEMPORAL STATISTIC: RUNNING AVERAGE
 421 ID: mu_wall
     QUANTITY: VISCOSITY
     Coordinates (X,Y,Z):    1.950000E+00    0.000000E+00    1.000000E-03
     TEMPORAL STATISTIC: RUNNING AVERAGE
 422 ID: mu_wall
     QUANTITY: VISCOSITY
     Coordinates (X,Y,Z):    2.050000E+00    0.000000E+00    1.000000E-03
     TEMPORAL STATISTIC: RUNNING AVERAGE
 423 ID: mu_wall
     QUANTITY: VISCOSITY
     Coordinates (X,Y,Z):    2.150000E+00    0.000000E+00    1.000000E-03
     TEMPORAL STATISTIC: RUNNING AVERAGE
 424 ID: mu_wall
     QUANTITY: VISCOSITY
     Coordinates (X,Y,Z):    2.250000E+00    0.000000E+00    1.000000E-03
     TEMPORAL STATISTIC: RUNNING AVERAGE
 425 ID: mu_wall
     QUANTITY: VISCOSITY
     Coordinates (X,Y,Z):    2.350000E+00    0.000000E+00    1.000000E-03
     TEMPORAL STATISTIC: RUNNING AVERAGE
 426 ID: mu_wall
     QUANTITY: VISCOSITY
     Coordinates (X,Y,Z):    2.450000E+00    0.000000E+00    1.000000E-03
     TEMPORAL STATISTIC: RUNNING AVERAGE
 427 ID: mu_wall
     QUANTITY: VISCOSITY
     Coordinates (X,Y,Z):    2.550000E+00    0.000000E+00    1.000000E-03
     TEMPORAL STATISTIC: RUNNING AVERAGE
 428 ID: mu_wall
     QUANTITY: VISCOSITY
     Coordinates (X,Y,Z):    2.650000E+00    0.000000E+00    1.000000E-03
     TEMPORAL STATISTIC: RUNNING AVERAGE
 429 ID: mu_wall
     QUANTITY: VISCOSITY
     Coordinates (X,Y,Z):    2.750000E+00    0.000000E+00    1.000000E-03
     TEMPORAL STATISTIC: RUNNING AVERAGE
 430 ID: mu_wall
     QUANTITY: VISCOSITY
     Coordinates (X,Y,Z):    2.850000E+00    0.000000E+00    1.000000E-03
     TEMPORAL STATISTIC: RUNNING AVERAGE
 431 ID: mu_wall
     QUANTITY: VISCOSITY
     Coordinates (X,Y,Z):    2.950000E+00    0.000000E+00    1.000000E-03
     TEMPORAL STATISTIC: RUNNING AVERAGE
 432 ID: mu_wall
     QUANTITY: VISCOSITY
     Coordinates (X,Y,Z):    3.050000E+00    0.000000E+00    1.000000E-03
     TEMPORAL STATISTIC: RUNNING AVERAGE
 433 ID: mu_wall
     QUANTITY: VISCOSITY
     Coordinates (X,Y,Z):    3.150000E+00    0.000000E+00    1.000000E-03
     TEMPORAL STATISTIC: RUNNING AVERAGE
 434 ID: mu_wall
     QUANTITY: VISCOSITY
     Coordinates (X,Y,Z):    3.250000E+00    0.000000E+00    1.000000E-03
     TEMPORAL STATISTIC: RUNNING AVERAGE
 435 ID: mu_wall
     QUANTITY: VISCOSITY
     Coordinates (X,Y,Z):    3.350000E+00    0.000000E+00    1.000000E-03
     TEMPORAL STATISTIC: RUNNING AVERAGE
 436 ID: mu_wall
     QUANTITY: VISCOSITY
     Coordinates (X,Y,Z):    3.450000E+00    0.000000E+00    1.000000E-03
     TEMPORAL STATISTIC: RUNNING AVERAGE
 437 ID: mu_wall
     QUANTITY: VISCOSITY
     Coordinates (X,Y,Z):    3.550000E+00    0.000000E+00    1.000000E-03
     TEMPORAL STATISTIC: RUNNING AVERAGE
 438 ID: mu_wall
     QUANTITY: VISCOSITY
     Coordinates (X,Y,Z):    3.650000E+00    0.000000E+00    1.000000E-03
     TEMPORAL STATISTIC: RUNNING AVERAGE
 439 ID: mu_wall
     QUANTITY: VISCOSITY
     Coordinates (X,Y,Z):    3.750000E+00    0.000000E+00    1.000000E-03
     TEMPORAL STATISTIC: RUNNING AVERAGE
 440 ID: mu_wall
     QUANTITY: VISCOSITY
     Coordinates (X,Y,Z):    3.850000E+00    0.000000E+00    1.000000E-03
     TEMPORAL STATISTIC: RUNNING AVERAGE
 441 ID: mu_wall
     QUANTITY: VISCOSITY
     Coordinates (X,Y,Z):    3.950000E+00    0.000000E+00    1.000000E-03
     TEMPORAL STATISTIC: RUNNING AVERAGE
 442 ID: mu_wall
     QUANTITY: VISCOSITY
     Coordinates (X,Y,Z):    4.050000E+00    0.000000E+00    1.000000E-03
     TEMPORAL STATISTIC: RUNNING AVERAGE
 443 ID: mu_wall
     QUANTITY: VISCOSITY
     Coordinates (X,Y,Z):    4.150000E+00    0.000000E+00    1.000000E-03
     TEMPORAL STATISTIC: RUNNING AVERAGE
 444 ID: mu_wall
     QUANTITY: VISCOSITY
     Coordinates (X,Y,Z):    4.250000E+00    0.000000E+00    1.000000E-03
     TEMPORAL STATISTIC: RUNNING AVERAGE
 445 ID: mu_wall
     QUANTITY: VISCOSITY
     Coordinates (X,Y,Z):    4.350000E+00    0.000000E+00    1.000000E-03
     TEMPORAL STATISTIC: RUNNING AVERAGE
 446 ID: mu_wall
     QUANTITY: VISCOSITY
     Coordinates (X,Y,Z):    4.450000E+00    0.000000E+00    1.000000E-03
     TEMPORAL STATISTIC: RUNNING AVERAGE
 447 ID: mu_wall
     QUANTITY: VISCOSITY
     Coordinates (X,Y,Z):    4.550000E+00    0.000000E+00    1.000000E-03
     TEMPORAL STATISTIC: RUNNING AVERAGE
 448 ID: mu_wall
     QUANTITY: VISCOSITY
     Coordinates (X,Y,Z):    4.650000E+00    0.000000E+00    1.000000E-03
     TEMPORAL STATISTIC: RUNNING AVERAGE
 449 ID: mu_wall
     QUANTITY: VISCOSITY
     Coordinates (X,Y,Z):    4.750000E+00    0.000000E+00    1.000000E-03
     TEMPORAL STATISTIC: RUNNING AVERAGE
 450 ID: mu_wall
     QUANTITY: VISCOSITY
     Coordinates (X,Y,Z):    4.850000E+00    0.000000E+00    1.000000E-03
     TEMPORAL STATISTIC: RUNNING AVERAGE
 451 ID: mu_wall
     QUANTITY: VISCOSITY
     Coordinates (X,Y,Z):    4.950000E+00    0.000000E+00    1.000000E-03
     TEMPORAL STATISTIC: RUNNING AVERAGE
 452 ID: mu_wall
     QUANTITY: VISCOSITY
     Coordinates (X,Y,Z):    5.050000E+00    0.000000E+00    1.000000E-03
     TEMPORAL STATISTIC: RUNNING AVERAGE
 453 ID: mu_wall
     QUANTITY: VISCOSITY
     Coordinates (X,Y,Z):    5.150000E+00    0.000000E+00    1.000000E-03
     TEMPORAL STATISTIC: RUNNING AVERAGE
 454 ID: mu_wall
     QUANTITY: VISCOSITY
     Coordinates (X,Y,Z):    5.250000E+00    0.000000E+00    1.000000E-03
     TEMPORAL STATISTIC: RUNNING AVERAGE
 455 ID: mu_wall
     QUANTITY: VISCOSITY
     Coordinates (X,Y,Z):    5.350000E+00    0.000000E+00    1.000000E-03
     TEMPORAL STATISTIC: RUNNING AVERAGE
 456 ID: mu_wall
     QUANTITY: VISCOSITY
     Coordinates (X,Y,Z):    5.450000E+00    0.000000E+00    1.000000E-03
     TEMPORAL STATISTIC: RUNNING AVERAGE
 457 ID: mu_wall
     QUANTITY: VISCOSITY
     Coordinates (X,Y,Z):    5.550000E+00    0.000000E+00    1.000000E-03
     TEMPORAL STATISTIC: RUNNING AVERAGE
 458 ID: mu_wall
     QUANTITY: VISCOSITY
     Coordinates (X,Y,Z):    5.650000E+00    0.000000E+00    1.000000E-03
[...]
       Max divergence:  0.13E-03 at (1,1,1)
       Min divergence:  0.10E-08 at (1,1,8)
       Max VN number:   0.14E-02 at (9,1,1)
 
       Time Step     2400   January  7, 2026  12:21:49
       Step Size:    0.121E-01 s, Total Time:      29.59 s
       Pressure Iterations: 1
       Maximum Velocity Error:  0.22E-15 on Mesh 1 at (10,1,4)
       Maximum Pressure Error:  0.73E-06 on Mesh 2 at (10,1,3)
       ---------------------------------------------------------------
       Mesh    1
       Max CFL number:  0.45E+00 at (1,1,1)
       Max divergence:  0.34E-03 at (1,1,1)
       Min divergence:  0.32E-13 at (1,1,8)
       Max VN number:   0.14E-02 at (10,1,1)
       Mesh    2
       Max CFL number:  0.37E+00 at (1,1,1)
       Max divergence:  0.13E-03 at (1,1,1)
       Min divergence:  0.10E-08 at (1,1,8)
       Max VN number:   0.14E-02 at (9,1,1)
 
       Time Step     2500   January  7, 2026  12:21:50
       Step Size:    0.121E-01 s, Total Time:      30.80 s
       Pressure Iterations: 1
       Maximum Velocity Error:  0.22E-15 on Mesh 1 at (10,1,4)
       Maximum Pressure Error:  0.64E-06 on Mesh 1 at (2,1,1)
       ---------------------------------------------------------------
       Mesh    1
       Max CFL number:  0.45E+00 at (1,1,1)
       Max divergence:  0.34E-03 at (1,1,1)
       Min divergence:  0.28E-13 at (1,1,8)
       Max VN number:   0.14E-02 at (10,1,1)
       Mesh    2
       Max CFL number:  0.37E+00 at (1,1,1)
       Max divergence:  0.13E-03 at (1,1,1)
       Min divergence:  0.10E-08 at (1,1,8)
       Max VN number:   0.14E-02 at (9,1,1)
 
       Time Step     2600   January  7, 2026  12:21:50
       Step Size:    0.121E-01 s, Total Time:      32.00 s
       Pressure Iterations: 1
       Maximum Velocity Error:  0.11E-15 on Mesh 1 at (10,1,2)
       Maximum Pressure Error:  0.66E-06 on Mesh 1 at (3,1,1)
       ---------------------------------------------------------------
       Mesh    1
       Max CFL number:  0.45E+00 at (1,1,1)
       Max divergence:  0.34E-03 at (1,1,1)
       Min divergence:  0.26E-13 at (1,1,8)
       Max VN number:   0.14E-02 at (10,1,1)
       Mesh    2
       Max CFL number:  0.37E+00 at (1,1,1)
       Max divergence:  0.13E-03 at (1,1,1)
       Min divergence:  0.10E-08 at (1,1,8)
       Max VN number:   0.14E-02 at (9,1,1)
 
       Time Step     2700   January  7, 2026  12:21:50
       Step Size:    0.121E-01 s, Total Time:      33.21 s
       Pressure Iterations: 1
       Maximum Velocity Error:  0.22E-15 on Mesh 1 at (10,1,4)
       Maximum Pressure Error:  0.50E-06 on Mesh 1 at (4,1,1)
       ---------------------------------------------------------------
       Mesh    1
       Max CFL number:  0.45E+00 at (1,1,1)
       Max divergence:  0.34E-03 at (1,1,1)
       Min divergence:  0.24E-13 at (1,1,8)
       Max VN number:   0.14E-02 at (10,1,1)
       Mesh    2
       Max CFL number:  0.37E+00 at (1,1,1)
       Max divergence:  0.13E-03 at (1,1,1)
       Min divergence:  0.11E-08 at (1,1,8)
       Max VN number:   0.14E-02 at (9,1,1)
 
       Time Step     2800   January  7, 2026  12:21:50
       Step Size:    0.121E-01 s, Total Time:      34.42 s
       Pressure Iterations: 1
       Maximum Velocity Error:  0.22E-15 on Mesh 1 at (10,1,4)
       Maximum Pressure Error:  0.45E-06 on Mesh 1 at (3,1,1)
       ---------------------------------------------------------------
       Mesh    1
       Max CFL number:  0.45E+00 at (1,1,1)
       Max divergence:  0.34E-03 at (1,1,1)
       Min divergence:  0.24E-13 at (1,1,8)
       Max VN number:   0.14E-02 at (10,1,1)
       Mesh    2
       Max CFL number:  0.37E+00 at (1,1,1)
       Max divergence:  0.13E-03 at (1,1,1)
       Min divergence:  0.11E-08 at (1,1,8)
       Max VN number:   0.14E-02 at (9,1,1)
 
       Time Step     2900   January  7, 2026  12:21:50
       Step Size:    0.121E-01 s, Total Time:      35.63 s
       Pressure Iterations: 1
       Maximum Velocity Error:  0.22E-15 on Mesh 1 at (10,1,7)
       Maximum Pressure Error:  0.53E-06 on Mesh 1 at (1,1,1)
       ---------------------------------------------------------------
       Mesh    1
       Max CFL number:  0.45E+00 at (1,1,1)
       Max divergence:  0.34E-03 at (1,1,1)
       Min divergence:  0.25E-13 at (1,1,8)
       Max VN number:   0.14E-02 at (10,1,1)
       Mesh    2
       Max CFL number:  0.37E+00 at (1,1,1)
       Max divergence:  0.13E-03 at (1,1,1)
       Min divergence:  0.11E-08 at (1,1,8)
       Max VN number:   0.14E-02 at (9,1,1)
 
       Time Step     3000   January  7, 2026  12:21:50
       Step Size:    0.121E-01 s, Total Time:      36.84 s
       Pressure Iterations: 1
       Maximum Velocity Error:  0.22E-15 on Mesh 1 at (10,1,4)
       Maximum Pressure Error:  0.88E-06 on Mesh 1 at (2,1,1)
       ---------------------------------------------------------------
       Mesh    1
       Max CFL number:  0.45E+00 at (1,1,1)
       Max divergence:  0.34E-03 at (1,1,1)
       Min divergence:  0.26E-13 at (1,1,8)
       Max VN number:   0.14E-02 at (10,1,1)
       Mesh    2
       Max CFL number:  0.37E+00 at (1,1,1)
       Max divergence:  0.13E-03 at (1,1,1)
       Min divergence:  0.10E-08 at (1,1,8)
       Max VN number:   0.14E-02 at (9,1,1)
 
       Time Step     3100   January  7, 2026  12:21:50
       Step Size:    0.121E-01 s, Total Time:      38.05 s
       Pressure Iterations: 1
       Maximum Velocity Error:  0.22E-15 on Mesh 1 at (10,1,6)
       Maximum Pressure Error:  0.91E-06 on Mesh 1 at (3,1,1)
       ---------------------------------------------------------------
       Mesh    1
       Max CFL number:  0.45E+00 at (1,1,1)
       Max divergence:  0.34E-03 at (1,1,1)
       Min divergence:  0.26E-13 at (1,1,8)
       Max VN number:   0.14E-02 at (10,1,1)
       Mesh    2
       Max CFL number:  0.37E+00 at (1,1,1)
       Max divergence:  0.13E-03 at (1,1,1)
       Min divergence:  0.10E-08 at (1,1,8)
       Max VN number:   0.14E-02 at (9,1,1)
 
       Time Step     3200   January  7, 2026  12:21:50
       Step Size:    0.121E-01 s, Total Time:      39.25 s
       Pressure Iterations: 1
       Maximum Velocity Error:  0.22E-15 on Mesh 1 at (10,1,4)
       Maximum Pressure Error:  0.75E-06 on Mesh 1 at (4,1,1)
       ---------------------------------------------------------------
       Mesh    1
       Max CFL number:  0.45E+00 at (1,1,1)
       Max divergence:  0.34E-03 at (1,1,1)
       Min divergence:  0.27E-13 at (1,1,8)
       Max VN number:   0.14E-02 at (10,1,1)
       Mesh    2
       Max CFL number:  0.37E+00 at (1,1,1)
       Max divergence:  0.13E-03 at (1,1,1)
       Min divergence:  0.10E-08 at (1,1,8)
       Max VN number:   0.14E-02 at (9,1,1)
 
       Time Step     3300   January  7, 2026  12:21:50
       Step Size:    0.121E-01 s, Total Time:      40.46 s
       Pressure Iterations: 1
       Maximum Velocity Error:  0.22E-15 on Mesh 1 at (10,1,4)
       Maximum Pressure Error:  0.54E-06 on Mesh 1 at (1,1,1)
       ---------------------------------------------------------------
       Mesh    1
       Max CFL number:  0.45E+00 at (1,1,1)
       Max divergence:  0.34E-03 at (1,1,1)
       Min divergence:  0.27E-13 at (1,1,8)
       Max VN number:   0.14E-02 at (10,1,1)
       Mesh    2
       Max CFL number:  0.37E+00 at (1,1,1)
       Max divergence:  0.13E-03 at (1,1,1)
       Min divergence:  0.10E-08 at (1,1,8)
       Max VN number:   0.14E-02 at (9,1,1)
 
       Time Step     3400   January  7, 2026  12:21:51
       Step Size:    0.121E-01 s, Total Time:      41.67 s
       Pressure Iterations: 1
       Maximum Velocity Error:  0.22E-15 on Mesh 1 at (10,1,8)
       Maximum Pressure Error:  0.54E-06 on Mesh 1 at (2,1,1)
       ---------------------------------------------------------------
       Mesh    1
       Max CFL number:  0.45E+00 at (1,1,1)
       Max divergence:  0.34E-03 at (1,1,1)
       Min divergence:  0.27E-13 at (1,1,8)
       Max VN number:   0.14E-02 at (10,1,1)
       Mesh    2
       Max CFL number:  0.37E+00 at (1,1,1)
       Max divergence:  0.13E-03 at (1,1,1)
       Min divergence:  0.10E-08 at (1,1,8)
       Max VN number:   0.14E-02 at (9,1,1)
 
       Time Step     3500   January  7, 2026  12:21:51
       Step Size:    0.121E-01 s, Total Time:      42.88 s
       Pressure Iterations: 1
       Maximum Velocity Error:  0.22E-15 on Mesh 1 at (10,1,4)
       Maximum Pressure Error:  0.41E-06 on Mesh 1 at (4,1,1)
       ---------------------------------------------------------------
       Mesh    1
       Max CFL number:  0.45E+00 at (1,1,1)
       Max divergence:  0.34E-03 at (1,1,1)
       Min divergence:  0.27E-13 at (1,1,8)
       Max VN number:   0.14E-02 at (10,1,1)
       Mesh    2
       Max CFL number:  0.37E+00 at (1,1,1)
       Max divergence:  0.13E-03 at (1,1,1)
       Min divergence:  0.10E-08 at (1,1,8)
       Max VN number:   0.14E-02 at (9,1,1)
 
       Time Step     3600   January  7, 2026  12:21:51
       Step Size:    0.121E-01 s, Total Time:      44.09 s
       Pressure Iterations: 1
       Maximum Velocity Error:  0.22E-15 on Mesh 1 at (10,1,4)
       Maximum Pressure Error:  0.28E-06 on Mesh 1 at (5,1,1)
       ---------------------------------------------------------------
       Mesh    1
       Max CFL number:  0.45E+00 at (1,1,1)
       Max divergence:  0.34E-03 at (1,1,1)
       Min divergence:  0.27E-13 at (1,1,8)
       Max VN number:   0.14E-02 at (10,1,1)
       Mesh    2
       Max CFL number:  0.37E+00 at (1,1,1)
       Max divergence:  0.13E-03 at (1,1,1)
       Min divergence:  0.10E-08 at (1,1,8)
       Max VN number:   0.14E-02 at (9,1,1)
 
       Time Step     3700   January  7, 2026  12:21:51
       Step Size:    0.121E-01 s, Total Time:      45.30 s
       Pressure Iterations: 1
       Maximum Velocity Error:  0.22E-15 on Mesh 1 at (10,1,7)
       Maximum Pressure Error:  0.26E-06 on Mesh 1 at (2,1,1)
       ---------------------------------------------------------------
       Mesh    1
       Max CFL number:  0.45E+00 at (1,1,1)
       Max divergence:  0.34E-03 at (1,1,1)
       Min divergence:  0.27E-13 at (1,1,8)
       Max VN number:   0.14E-02 at (10,1,1)
       Mesh    2
       Max CFL number:  0.37E+00 at (1,1,1)
       Max divergence:  0.13E-03 at (1,1,1)
       Min divergence:  0.10E-08 at (1,1,8)
       Max VN number:   0.14E-02 at (9,1,1)
 
       Time Step     3800   January  7, 2026  12:21:51
       Step Size:    0.121E-01 s, Total Time:      46.51 s
       Pressure Iterations: 1
       Maximum Velocity Error:  0.22E-15 on Mesh 1 at (10,1,6)
       Maximum Pressure Error:  0.23E-06 on Mesh 1 at (3,1,1)
       ---------------------------------------------------------------
       Mesh    1
       Max CFL number:  0.45E+00 at (1,1,1)
       Max divergence:  0.34E-03 at (1,1,1)
       Min divergence:  0.26E-13 at (1,1,8)
       Max VN number:   0.14E-02 at (10,1,1)
       Mesh    2
       Max CFL number:  0.37E+00 at (1,1,1)
       Max divergence:  0.13E-03 at (1,1,1)
       Min divergence:  0.11E-08 at (1,1,8)
       Max VN number:   0.14E-02 at (9,1,1)
 
       Time Step     3900   January  7, 2026  12:21:51
       Step Size:    0.121E-01 s, Total Time:      47.71 s
       Pressure Iterations: 1
       Maximum Velocity Error:  0.22E-15 on Mesh 1 at (10,1,8)
       Maximum Pressure Error:  0.16E-06 on Mesh 2 at (10,1,3)
       ---------------------------------------------------------------
       Mesh    1
       Max CFL number:  0.45E+00 at (1,1,1)
       Max divergence:  0.34E-03 at (1,1,1)
       Min divergence:  0.26E-13 at (1,1,8)
       Max VN number:   0.14E-02 at (10,1,1)
       Mesh    2
       Max CFL number:  0.37E+00 at (1,1,1)
       Max divergence:  0.13E-03 at (1,1,1)
       Min divergence:  0.10E-08 at (1,1,8)
       Max VN number:   0.14E-02 at (9,1,1)
 
       Time Step     4000   January  7, 2026  12:21:51
       Step Size:    0.121E-01 s, Total Time:      48.92 s
       Pressure Iterations: 1
       Maximum Velocity Error:  0.22E-15 on Mesh 1 at (10,1,6)
       Maximum Pressure Error:  0.17E-06 on Mesh 1 at (2,1,1)
       ---------------------------------------------------------------
       Mesh    1
       Max CFL number:  0.45E+00 at (1,1,1)
       Max divergence:  0.34E-03 at (1,1,1)
       Min divergence:  0.26E-13 at (1,1,8)
       Max VN number:   0.14E-02 at (10,1,1)
       Mesh    2
       Max CFL number:  0.37E+00 at (1,1,1)
       Max divergence:  0.13E-03 at (1,1,1)
       Min divergence:  0.11E-08 at (1,1,8)
       Max VN number:   0.14E-02 at (9,1,1)
 
       Time Step     4100   January  7, 2026  12:21:51
       Step Size:    0.121E-01 s, Total Time:      50.13 s
       Pressure Iterations: 1
       Maximum Velocity Error:  0.11E-15 on Mesh 1 at (10,1,8)
       Maximum Pressure Error:  0.19E-06 on Mesh 1 at (3,1,1)
       ---------------------------------------------------------------
       Mesh    1
       Max CFL number:  0.45E+00 at (1,1,1)
       Max divergence:  0.34E-03 at (1,1,1)
       Min divergence:  0.26E-13 at (1,1,8)
       Max VN number:   0.14E-02 at (10,1,1)
       Mesh    2
       Max CFL number:  0.37E+00 at (1,1,1)
       Max divergence:  0.13E-03 at (1,1,1)
       Min divergence:  0.11E-08 at (1,1,8)
       Max VN number:   0.14E-02 at (9,1,1)
 
       Time Step     4200   January  7, 2026  12:21:51
       Step Size:    0.121E-01 s, Total Time:      51.34 s
       Pressure Iterations: 1
       Maximum Velocity Error:  0.22E-15 on Mesh 1 at (10,1,5)
       Maximum Pressure Error:  0.19E-06 on Mesh 1 at (1,1,1)
       ---------------------------------------------------------------
       Mesh    1
       Max CFL number:  0.45E+00 at (1,1,1)
       Max divergence:  0.34E-03 at (1,1,1)
       Min divergence:  0.26E-13 at (1,1,8)
       Max VN number:   0.14E-02 at (10,1,1)
       Mesh    2
       Max CFL number:  0.37E+00 at (1,1,1)
       Max divergence:  0.13E-03 at (1,1,1)
       Min divergence:  0.11E-08 at (1,1,8)
       Max VN number:   0.14E-02 at (9,1,1)
 
       Time Step     4300   January  7, 2026  12:21:51
       Step Size:    0.121E-01 s, Total Time:      52.55 s
       Pressure Iterations: 1
       Maximum Velocity Error:  0.22E-15 on Mesh 1 at (10,1,6)
       Maximum Pressure Error:  0.22E-06 on Mesh 1 at (2,1,1)
       ---------------------------------------------------------------
       Mesh    1
       Max CFL number:  0.45E+00 at (1,1,1)
       Max divergence:  0.34E-03 at (1,1,1)
       Min divergence:  0.26E-13 at (1,1,8)
       Max VN number:   0.14E-02 at (10,1,1)
       Mesh    2
       Max CFL number:  0.37E+00 at (1,1,1)
       Max divergence:  0.13E-03 at (1,1,1)
       Min divergence:  0.11E-08 at (1,1,8)
       Max VN number:   0.14E-02 at (9,1,1)
 
       Time Step     4400   January  7, 2026  12:21:52
       Step Size:    0.121E-01 s, Total Time:      53.76 s
       Pressure Iterations: 1
       Maximum Velocity Error:  0.22E-15 on Mesh 1 at (10,1,4)
       Maximum Pressure Error:  0.20E-06 on Mesh 1 at (3,1,1)
       ---------------------------------------------------------------
       Mesh    1
       Max CFL number:  0.45E+00 at (1,1,1)
       Max divergence:  0.34E-03 at (1,1,1)
       Min divergence:  0.27E-13 at (1,1,8)
       Max VN number:   0.14E-02 at (10,1,1)
       Mesh    2
       Max CFL number:  0.37E+00 at (1,1,1)
       Max divergence:  0.13E-03 at (1,1,1)
       Min divergence:  0.11E-08 at (1,1,8)
       Max VN number:   0.14E-02 at (9,1,1)
 
       Time Step     4500   January  7, 2026  12:21:52
       Step Size:    0.121E-01 s, Total Time:      54.96 s
       Pressure Iterations: 1
       Maximum Velocity Error:  0.22E-15 on Mesh 1 at (10,1,4)
       Maximum Pressure Error:  0.16E-06 on Mesh 1 at (4,1,1)
       ---------------------------------------------------------------
       Mesh    1
       Max CFL number:  0.45E+00 at (1,1,1)
       Max divergence:  0.34E-03 at (1,1,1)
       Min divergence:  0.27E-13 at (1,1,8)
       Max VN number:   0.14E-02 at (10,1,1)
       Mesh    2
       Max CFL number:  0.37E+00 at (1,1,1)
       Max divergence:  0.13E-03 at (1,1,1)
       Min divergence:  0.11E-08 at (1,1,8)
       Max VN number:   0.14E-02 at (9,1,1)
 
       Time Step     4600   January  7, 2026  12:21:52
       Step Size:    0.121E-01 s, Total Time:      56.17 s
       Pressure Iterations: 1
       Maximum Velocity Error:  0.11E-15 on Mesh 1 at (10,1,2)
       Maximum Pressure Error:  0.12E-06 on Mesh 1 at (1,1,1)
       ---------------------------------------------------------------
       Mesh    1
       Max CFL number:  0.45E+00 at (1,1,1)
       Max divergence:  0.34E-03 at (1,1,1)
       Min divergence:  0.27E-13 at (1,1,8)
       Max VN number:   0.14E-02 at (10,1,1)
       Mesh    2
       Max CFL number:  0.37E+00 at (1,1,1)
       Max divergence:  0.13E-03 at (1,1,1)
       Min divergence:  0.11E-08 at (1,1,8)
       Max VN number:   0.14E-02 at (9,1,1)
 
       Time Step     4700   January  7, 2026  12:21:52
       Step Size:    0.121E-01 s, Total Time:      57.38 s
       Pressure Iterations: 1
       Maximum Velocity Error:  0.22E-15 on Mesh 1 at (10,1,4)
       Maximum Pressure Error:  0.10E-06 on Mesh 1 at (2,1,1)
       ---------------------------------------------------------------
       Mesh    1
       Max CFL number:  0.45E+00 at (1,1,1)
       Max divergence:  0.34E-03 at (1,1,1)
       Min divergence:  0.27E-13 at (1,1,8)
       Max VN number:   0.14E-02 at (10,1,1)
       Mesh    2
       Max CFL number:  0.37E+00 at (1,1,1)
       Max divergence:  0.13E-03 at (1,1,1)
       Min divergence:  0.11E-08 at (1,1,8)
       Max VN number:   0.14E-02 at (9,1,1)
 
       Time Step     4800   January  7, 2026  12:21:52
       Step Size:    0.121E-01 s, Total Time:      58.59 s
       Pressure Iterations: 1
       Maximum Velocity Error:  0.22E-15 on Mesh 1 at (10,1,4)
       Maximum Pressure Error:  0.67E-07 on Mesh 1 at (3,1,1)
       ---------------------------------------------------------------
       Mesh    1
       Max CFL number:  0.45E+00 at (1,1,1)
       Max divergence:  0.34E-03 at (1,1,1)
       Min divergence:  0.27E-13 at (1,1,8)
       Max VN number:   0.14E-02 at (10,1,1)
       Mesh    2
       Max CFL number:  0.37E+00 at (1,1,1)
       Max divergence:  0.13E-03 at (1,1,1)
       Min divergence:  0.11E-08 at (1,1,8)
       Max VN number:   0.14E-02 at (9,1,1)
 
       Time Step     4900   January  7, 2026  12:21:52
       Step Size:    0.121E-01 s, Total Time:      59.80 s
       Pressure Iterations: 1
       Maximum Velocity Error:  0.22E-15 on Mesh 1 at (10,1,4)
       Maximum Pressure Error:  0.53E-07 on Mesh 2 at (9,1,3)
       ---------------------------------------------------------------
       Mesh    1
       Max CFL number:  0.45E+00 at (1,1,1)
       Max divergence:  0.34E-03 at (1,1,1)
       Min divergence:  0.27E-13 at (1,1,8)
       Max VN number:   0.14E-02 at (10,1,1)
       Mesh    2
       Max CFL number:  0.37E+00 at (1,1,1)
       Max divergence:  0.13E-03 at (1,1,1)
       Min divergence:  0.11E-08 at (1,1,8)
       Max VN number:   0.14E-02 at (9,1,1)
 
       Time Step     4917   January  7, 2026  12:21:52
       Step Size:    0.928E-02 s, Total Time:      60.00 s
       Pressure Iterations: 1
       Maximum Velocity Error:  0.22E-15 on Mesh 1 at (10,1,4)
       Maximum Pressure Error:  0.23E-04 on Mesh 1 at (1,1,1)
       ---------------------------------------------------------------
       Mesh    1
       Max CFL number:  0.35E+00 at (1,1,1)
       Max divergence:  0.34E-03 at (1,1,1)
       Min divergence:  0.27E-13 at (1,1,8)
       Max VN number:   0.11E-02 at (10,1,1)
       Mesh    2
       Max CFL number:  0.28E+00 at (1,1,1)
       Max divergence:  0.13E-03 at (1,1,1)
       Min divergence:  0.11E-08 at (1,1,8)
       Max VN number:   0.11E-02 at (9,1,1)
 


 Time Stepping Wall Clock Time (s):        5.252
 Total Elapsed Wall Clock Time (s):        5.308

STOP: FDS completed successfully (CHID: Pohlhausen_Pr_1)
