
 Fire Dynamics Simulator

 Current Date     : January 14, 2026  15:57:01
 Revision         : FDS-6.9.1-0-g889da6a-release
 Revision Date    : Sun Apr 7 17:05:06 2024 -0400
 Compiler         : Intel(R) Fortran Intel(R) 64 Compiler Classic for applications running on Intel(R) 64, Version 2021.7.1 Build 20221019_000000
 Compilation Date : Apr 09, 2024 13:24:51

 Number of MPI Processes:  1

 MPI version: 3.1
 MPI library version: Intel(R) MPI Library 2021.6 for Linux* OS


 Job TITLE        : supply_exhaust_vents
 Job ID string    : supply_exhaust_vents


 Grid Dimensions, Mesh     1

   Cells in the X Direction            30
   Cells in the Y Direction            20
   Cells in the Z Direction            30
   Number of Grid Cells             18000


 Physical Dimensions, Mesh     1

   Length (m)                       3.000
   Width  (m)                       2.000
   Height (m)                       3.000

 Grid Dimensions, Mesh     2

   Cells in the X Direction            30
   Cells in the Y Direction            20
   Cells in the Z Direction            30
   Number of Grid Cells             18000


 Physical Dimensions, Mesh     2

   Length (m)                       3.000
   Width  (m)                       2.000
   Height (m)                       3.000

 Miscellaneous Parameters

   Total Number of Grid Cells       36000
   Maximum Cell Aspect Ratio        1.000
   Initial Time Step (s)            0.092
   CFL Velocity Norm                    2
   Simulation Start Time (s)          0.0
   Simulation End Time (s)            5.0
   Background Pressure (Pa)     101325.00
   Ambient Temperature (C)          20.00

   3D Cartesian
   VLES Calculation
   Eddy Viscosity Model:  Deardorff (C_DEARDORFF = 0.10)
   Surface INERT Eddy Viscosity Model:  WALE (C_WALE = 0.60)
   Surface fire1 Eddy Viscosity Model:  WALE (C_WALE = 0.60)
   Surface supply Eddy Viscosity Model:  WALE (C_WALE = 0.60)
   Surface exhaust Eddy Viscosity Model:  WALE (C_WALE = 0.60)
   Turbulent Prandtl Number:         0.50
   Turbulent Schmidt Number:         0.50


 Pressure solver information

   Solver:                            FFT
   Velocity tolerance (m/s):    5.000E-02
   Press eqn res tol (1/s^2):   2.000E+03
   Max pressure iterations:            10


 Background Stratification

      Z (m)     P_0 (Pa)    TMP_0 (C)
   ------------------------------------
        2.95    101290.42     20.00
        2.85    101291.59     20.00
        2.75    101292.77     20.00
        2.65    101293.93     20.00
        2.55    101295.11     20.00
        2.45    101296.28     20.00
        2.35    101297.45     20.00
        2.25    101298.62     20.00
        2.15    101299.80     20.00
        2.05    101300.96     20.00
        1.95    101302.14     20.00
        1.85    101303.31     20.00
        1.75    101304.48     20.00
        1.65    101305.65     20.00
        1.55    101306.83     20.00
        1.45    101308.00     20.00
        1.35    101309.17     20.00
        1.25    101310.34     20.00
        1.15    101311.51     20.00
        1.05    101312.69     20.00
        0.95    101313.86     20.00
        0.85    101315.03     20.00
        0.75    101316.20     20.00
        0.65    101317.38     20.00
        0.55    101318.54     20.00
        0.45    101319.72     20.00
        0.35    101320.89     20.00
        0.25    101322.06     20.00
        0.15    101323.23     20.00
        0.05    101324.41     20.00


 Mass Fraction Transformation Matrix to Convert Species Mixtures (Columns) to Primitive Species (Rows)

                         AIR       PROPANE   PRODUCTS
   NITROGEN              0.762470  0.000000  0.715513
   OXYGEN                0.230997  0.000000  0.000000
   CARBON DIOXIDE        0.000591  0.000000  0.173342
   WATER VAPOR           0.005941  0.000000  0.106218
   CARBON MONOXIDE       0.000000  0.000000  0.003079
   SOOT                  0.000000  0.000000  0.001848
   HYDROGEN              0.000000  0.000000  0.000000
   HYDROGEN CYANIDE      0.000000  0.000000  0.000000
   PROPANE               0.000000  1.000000  0.000000


 Primitive Species Information

   NITROGEN
   Gas Species
   Molecular Weight (g/mol)                28.01340
   Ambient Density (kg/m^3)                1.165
           Enthalpy of Formation (J/kg)  0.000E+00

   OXYGEN
   Gas Species
   Molecular Weight (g/mol)                31.99880
   Ambient Density (kg/m^3)                1.330
           Enthalpy of Formation (J/kg)  0.000E+00

   CARBON DIOXIDE
   Gas Species
   Molecular Weight (g/mol)                44.00950
   Ambient Density (kg/m^3)                1.830
           Enthalpy of Formation (J/kg) -8.941E+06

   WATER VAPOR
   Gas Species
   Molecular Weight (g/mol)                18.01528
   Ambient Density (kg/m^3)                0.749
           Enthalpy of Formation (J/kg) -1.342E+07

   CARBON MONOXIDE
   Gas Species
   Molecular Weight (g/mol)                28.01010
   Ambient Density (kg/m^3)                1.164
           Enthalpy of Formation (J/kg) -3.946E+06

   SOOT
   Gas Species
   Molecular Weight (g/mol)                12.01070
   Ambient Density (kg/m^3)                0.499
           Enthalpy of Formation (J/kg)  0.000E+00

   HYDROGEN
   Gas Species
   Molecular Weight (g/mol)                 2.01588
   Ambient Density (kg/m^3)                0.084
           Enthalpy of Formation (J/kg)  0.000E+00

   HYDROGEN CYANIDE
   Gas Species
   Molecular Weight (g/mol)                27.02534
   Ambient Density (kg/m^3)                1.123
           Enthalpy of Formation (J/kg)  4.924E+06

   PROPANE
   Gas Species
   Molecular Weight (g/mol)                44.09562
   Ambient Density (kg/m^3)                1.833
           Enthalpy of Formation (J/kg) -2.374E+06


 Tracked (Lumped) Species Information

   AIR
   Molecular Weight (g/mol)            28.75198
   Ambient Density (kg/m^3)            1.195
   Initial Mass Fraction               1.000
   Enthalpy of Formation (J/kg)     -8.504E+04

   Sub Species                    Mass Fraction     Mole Fraction
   NITROGEN                       7.624699E-01      7.825727E-01
   OXYGEN                         2.309974E-01      2.075588E-01
   CARBON DIOXIDE                 5.914650E-04      3.864118E-04
   WATER VAPOR                    5.941209E-03      9.482037E-03
 
     Viscosity (kg/m/s) Ambient,  293 K:  1.796E-05
                                  500 K:  2.612E-05
                                 1000 K:  4.125E-05
                                 1500 K:  5.371E-05
                                 2000 K:  6.476E-05
   Therm. Cond. (W/m/K) Ambient,  293 K:  2.556E-02
                                  500 K:  3.814E-02
                                 1000 K:  6.686E-02
                                 1500 K:  9.249E-02
                                 2000 K:  1.153E-01
        Enthalpy (J/kg) Ambient,  293 K: -9.012E+04
                                  500 K:  1.222E+05
                                 1000 K:  6.721E+05
                                 1500 K:  1.270E+06
                                 2000 K:  1.896E+06
    Spec. Heat (J/kg/K) Ambient,  293 K:  1.016E+03
                                  500 K:  1.042E+03
                                 1000 K:  1.156E+03
                                 1500 K:  1.229E+03
                                 2000 K:  1.270E+03
   Diff. Coeff. (m^2/s) Ambient,  293 K:  1.991E-05
                                  500 K:  4.961E-05
                                 1000 K:  1.580E-04
                                 1500 K:  3.095E-04
                                 2000 K:  4.984E-04
 Gibbs Energy Amb. (kJ/mol),  293 K: -5.873E+01
                                  500 K: -1.007E+02
                                 1000 K: -2.117E+02
                                 1500 K: -3.312E+02
                                 2000 K: -4.568E+02

   PROPANE
   Molecular Weight (g/mol)            44.09562
   Ambient Density (kg/m^3)            1.833
   Initial Mass Fraction               0.000
   Enthalpy of Formation (J/kg)     -2.374E+06

   Sub Species                    Mass Fraction     Mole Fraction
   PROPANE                        1.000000E+00      1.000000E+00
 
     Viscosity (kg/m/s) Ambient,  293 K:  8.079E-06
                                  500 K:  1.310E-05
                                 1000 K:  2.234E-05
                                 1500 K:  2.955E-05
                                 2000 K:  3.574E-05
   Therm. Cond. (W/m/K) Ambient,  293 K:  1.821E-02
                                  500 K:  4.581E-02
                                 1000 K:  1.212E-01
                                 1500 K:  1.890E-01
                                 2000 K:  2.465E-01
        Enthalpy (J/kg) Ambient,  293 K: -2.382E+06
                                  500 K: -1.946E+06
                                 1000 K: -2.769E+05
                                 1500 K:  1.900E+06
                                 2000 K:  4.336E+06
    Spec. Heat (J/kg/K) Ambient,  293 K:  1.646E+03
                                  500 K:  2.553E+03
                                 1000 K:  3.960E+03
                                 1500 K:  4.669E+03
                                 2000 K:  5.034E+03
   Diff. Coeff. (m^2/s) Ambient,  293 K:  1.110E-05
                                  500 K:  2.862E-05
                                 1000 K:  9.316E-05
                                 1500 K:  1.833E-04
                                 2000 K:  2.954E-04
 Gibbs Energy Amb. (kJ/mol),  293 K: -1.839E+02
                                  500 K: -2.447E+02
                                 1000 K: -4.295E+02
                                 1500 K: -6.584E+02
                                 2000 K: -9.217E+02

   PRODUCTS
   Molecular Weight (g/mol)            28.05811
   Ambient Density (kg/m^3)            1.166
   Initial Mass Fraction               0.000
   Enthalpy of Formation (J/kg)     -2.988E+06

   Sub Species                    Mass Fraction     Mole Fraction
   NITROGEN                       7.155130E-01      7.166551E-01
   CARBON DIOXIDE                 1.733421E-01      1.105137E-01
   WATER VAPOR                    1.062181E-01      1.654306E-01
   CARBON MONOXIDE                3.079264E-03      3.084543E-03
   SOOT                           1.847558E-03      4.316069E-03
   HYDROGEN CYANIDE               0.000000E+00      0.000000E+00
 
     Viscosity (kg/m/s) Ambient,  293 K:  1.611E-05
                                  500 K:  2.387E-05
                                 1000 K:  3.891E-05
                                 1500 K:  5.142E-05
                                 2000 K:  6.243E-05
   Therm. Cond. (W/m/K) Ambient,  293 K:  2.341E-02
                                  500 K:  3.618E-02
                                 1000 K:  6.714E-02
                                 1500 K:  9.636E-02
                                 2000 K:  1.226E-01
        Enthalpy (J/kg) Ambient,  293 K: -2.993E+06
                                  500 K: -2.762E+06
                                 1000 K: -2.151E+06
                                 1500 K: -1.472E+06
                                 2000 K: -7.516E+05
    Spec. Heat (J/kg/K) Ambient,  293 K:  1.092E+03
                                  500 K:  1.145E+03
                                 1000 K:  1.299E+03
                                 1500 K:  1.406E+03
                                 2000 K:  1.469E+03
   Diff. Coeff. (m^2/s) Ambient,  293 K:  1.955E-05
                                  500 K:  4.964E-05
                                 1000 K:  1.603E-04
                                 1500 K:  3.153E-04
                                 2000 K:  5.086E-04
 Gibbs Energy Amb. (kJ/mol),  293 K: -1.513E+02
                                  500 K: -1.934E+02
                                 1000 K: -3.057E+02
                                 1500 K: -4.275E+02
                                 2000 K: -5.562E+02


 Gas Phase Reaction Information

      Fuel                                           Heat of Combustion (kJ/kg)
      PROPANE                                                        44846.5961
      EPUMO2:                                                        12741.0299

      Primitive Species Stoich. Coeff.
      Species ID                                                          Molar
      OXYGEN                                                          -4.850502
      CARBON DIOXIDE                                                   2.811145
      WATER VAPOR                                                      4.000000
      CARBON MONOXIDE                                                  0.078714
      SOOT                                                             0.110141
      PROPANE                                                         -1.000000

      Tracked (Lumped) Species Stoich. Coeff.
      Species ID                                             Molar         Mass
      AIR                                               -23.369290   -15.237646
      PROPANE                                            -1.000000    -1.000000
      PRODUCTS                                           25.518788    16.237646

      Reaction Kinetics

      Fast chemistry

      ODE Solver:  EXPLICIT EULER

      Extinction Model:  EXTINCTION 1
      Auto-Ignition Temperature (C):            -273.1
      Critical Flame Temperature (C):           1447.0

      Prescribed Radiative Fraction:             0.290


 Material Information


 Surface Conditions

   0 INERT (DEFAULT)

   1 fire1
     HRR Per Unit Area (kW/m2)        150.0
     PROPANE Mass Flux (kg/s/m2)   3.345E-03

   2 supply
     Volume Flow     (m^3/s)    -1.500E+00
     AIR Mass Fraction         1.000

   3 exhaust
     Volume Flow     (m^3/s)     1.500E+00
     AIR Mass Fraction         1.000

   4 OPEN
     Passive Vent to Atmosphere

   5 MIRROR
     Symmetry Plane

   6 INTERPOLATED

   7 PERIODIC

   8 HVAC

   9 MASSLESS TRACER

  10 DROPLET

  11 MASSLESS TARGET

  12 PERIODIC FLOW ONLY


 Lagrangian Particle Classes


 Cut-off Density and Temperature

    Minimum Temperature:  -259.1 C
    Maximum Temperature:  2726.8 C
    Minimum Density:  1.195E-01 kg/m3
    Maximum Density:  7.677E+01 kg/m3


 Device Information

   1 ID: timer
     QUANTITY: TIME
     Coordinates (X,Y,Z):    1.000000E+00    1.000000E+00    1.000000E+00
     TEMPORAL STATISTIC: TIME AVERAGE
   2 ID: flow_volume_supply
     QUANTITY: U-VELOCITY
     Coordinates (X,Y,Z):    1.000000E-03    1.999000E+00    4.000000E-01
     SPATIAL STATISTIC: AREA INTEGRAL
     TEMPORAL STATISTIC: TIME AVERAGE
   3 ID: flow_volume_exhaust
     QUANTITY: U-VELOCITY
     Coordinates (X,Y,Z):    2.999000E+00    1.999000E+00    2.800000E+00
     SPATIAL STATISTIC: AREA INTEGRAL
     TEMPORAL STATISTIC: TIME AVERAGE
   4 ID: eye_level_visibility
     QUANTITY: VISIBILITY
     Species ID: SOOT
     Coordinates (X,Y,Z):    1.500000E+00    1.000000E-03    1.500000E+00
     TEMPORAL STATISTIC: TIME AVERAGE
   5 ID: air_temperature
     QUANTITY: TEMPERATURE
     Coordinates (X,Y,Z):    1.500000E+00    1.000000E-03    1.500000E+00
     TEMPORAL STATISTIC: TIME AVERAGE
   6 ID: visibility_time_averaged
     QUANTITY: VISIBILITY
     Species ID: SOOT
     Coordinates (X,Y,Z):    1.500000E+00    1.000000E-03    1.000000E-03
     TEMPORAL STATISTIC: RUNNING AVERAGE
   7 ID: visibility_time_averaged
     QUANTITY: VISIBILITY
     Species ID: SOOT
     Coordinates (X,Y,Z):    1.500000E+00    1.000000E-03    2.929293E-02
     TEMPORAL STATISTIC: RUNNING AVERAGE
   8 ID: visibility_time_averaged
     QUANTITY: VISIBILITY
     Species ID: SOOT
     Coordinates (X,Y,Z):    1.500000E+00    1.000000E-03    5.858586E-02
     TEMPORAL STATISTIC: RUNNING AVERAGE
   9 ID: visibility_time_averaged
     QUANTITY: VISIBILITY
     Species ID: SOOT
     Coordinates (X,Y,Z):    1.500000E+00    1.000000E-03    8.787879E-02
     TEMPORAL STATISTIC: RUNNING AVERAGE
  10 ID: visibility_time_averaged
     QUANTITY: VISIBILITY
     Species ID: SOOT
     Coordinates (X,Y,Z):    1.500000E+00    1.000000E-03    1.171717E-01
     TEMPORAL STATISTIC: RUNNING AVERAGE
  11 ID: visibility_time_averaged
     QUANTITY: VISIBILITY
     Species ID: SOOT
     Coordinates (X,Y,Z):    1.500000E+00    1.000000E-03    1.464646E-01
     TEMPORAL STATISTIC: RUNNING AVERAGE
  12 ID: visibility_time_averaged
     QUANTITY: VISIBILITY
     Species ID: SOOT
     Coordinates (X,Y,Z):    1.500000E+00    1.000000E-03    1.757576E-01
     TEMPORAL STATISTIC: RUNNING AVERAGE
  13 ID: visibility_time_averaged
     QUANTITY: VISIBILITY
     Species ID: SOOT
     Coordinates (X,Y,Z):    1.500000E+00    1.000000E-03    2.050505E-01
     TEMPORAL STATISTIC: RUNNING AVERAGE
  14 ID: visibility_time_averaged
     QUANTITY: VISIBILITY
     Species ID: SOOT
     Coordinates (X,Y,Z):    1.500000E+00    1.000000E-03    2.343434E-01
     TEMPORAL STATISTIC: RUNNING AVERAGE
  15 ID: visibility_time_averaged
     QUANTITY: VISIBILITY
     Species ID: SOOT
     Coordinates (X,Y,Z):    1.500000E+00    1.000000E-03    2.636364E-01
     TEMPORAL STATISTIC: RUNNING AVERAGE
  16 ID: visibility_time_averaged
     QUANTITY: VISIBILITY
     Species ID: SOOT
     Coordinates (X,Y,Z):    1.500000E+00    1.000000E-03    2.929293E-01
     TEMPORAL STATISTIC: RUNNING AVERAGE
  17 ID: visibility_time_averaged
     QUANTITY: VISIBILITY
     Species ID: SOOT
     Coordinates (X,Y,Z):    1.500000E+00    1.000000E-03    3.222222E-01
     TEMPORAL STATISTIC: RUNNING AVERAGE
  18 ID: visibility_time_averaged
     QUANTITY: VISIBILITY
     Species ID: SOOT
     Coordinates (X,Y,Z):    1.500000E+00    1.000000E-03    3.515152E-01
     TEMPORAL STATISTIC: RUNNING AVERAGE
  19 ID: visibility_time_averaged
     QUANTITY: VISIBILITY
     Species ID: SOOT
     Coordinates (X,Y,Z):    1.500000E+00    1.000000E-03    3.808081E-01
     TEMPORAL STATISTIC: RUNNING AVERAGE
  20 ID: visibility_time_averaged
     QUANTITY: VISIBILITY
     Species ID: SOOT
     Coordinates (X,Y,Z):    1.500000E+00    1.000000E-03    4.101010E-01
     TEMPORAL STATISTIC: RUNNING AVERAGE
  21 ID: visibility_time_averaged
     QUANTITY: VISIBILITY
     Species ID: SOOT
     Coordinates (X,Y,Z):    1.500000E+00    1.000000E-03    4.393939E-01
     TEMPORAL STATISTIC: RUNNING AVERAGE
  22 ID: visibility_time_averaged
     QUANTITY: VISIBILITY
     Species ID: SOOT
     Coordinates (X,Y,Z):    1.500000E+00    1.000000E-03    4.686869E-01
     TEMPORAL STATISTIC: RUNNING AVERAGE
  23 ID: visibility_time_averaged
     QUANTITY: VISIBILITY
     Species ID: SOOT
     Coordinates (X,Y,Z):    1.500000E+00    1.000000E-03    4.979798E-01
     TEMPORAL STATISTIC: RUNNING AVERAGE
  24 ID: visibility_time_averaged
     QUANTITY: VISIBILITY
     Species ID: SOOT
     Coordinates (X,Y,Z):    1.500000E+00    1.000000E-03    5.272727E-01
     TEMPORAL STATISTIC: RUNNING AVERAGE
  25 ID: visibility_time_averaged
     QUANTITY: VISIBILITY
     Species ID: SOOT
     Coordinates (X,Y,Z):    1.500000E+00    1.000000E-03    5.565657E-01
     TEMPORAL STATISTIC: RUNNING AVERAGE
  26 ID: visibility_time_averaged
     QUANTITY: VISIBILITY
     Species ID: SOOT
     Coordinates (X,Y,Z):    1.500000E+00    1.000000E-03    5.858586E-01
     TEMPORAL STATISTIC: RUNNING AVERAGE
  27 ID: visibility_time_averaged
     QUANTITY: VISIBILITY
     Species ID: SOOT
     Coordinates (X,Y,Z):    1.500000E+00    1.000000E-03    6.151515E-01
     TEMPORAL STATISTIC: RUNNING AVERAGE
  28 ID: visibility_time_averaged
     QUANTITY: VISIBILITY
     Species ID: SOOT
     Coordinates (X,Y,Z):    1.500000E+00    1.000000E-03    6.444444E-01
     TEMPORAL STATISTIC: RUNNING AVERAGE
  29 ID: visibility_time_averaged
     QUANTITY: VISIBILITY
     Species ID: SOOT
     Coordinates (X,Y,Z):    1.500000E+00    1.000000E-03    6.737374E-01
     TEMPORAL STATISTIC: RUNNING AVERAGE
  30 ID: visibility_time_averaged
     QUANTITY: VISIBILITY
     Species ID: SOOT
     Coordinates (X,Y,Z):    1.500000E+00    1.000000E-03    7.030303E-01
     TEMPORAL STATISTIC: RUNNING AVERAGE
  31 ID: visibility_time_averaged
     QUANTITY: VISIBILITY
     Species ID: SOOT
     Coordinates (X,Y,Z):    1.500000E+00    1.000000E-03    7.323232E-01
     TEMPORAL STATISTIC: RUNNING AVERAGE
  32 ID: visibility_time_averaged
     QUANTITY: VISIBILITY
     Species ID: SOOT
     Coordinates (X,Y,Z):    1.500000E+00    1.000000E-03    7.616162E-01
     TEMPORAL STATISTIC: RUNNING AVERAGE
  33 ID: visibility_time_averaged
     QUANTITY: VISIBILITY
     Species ID: SOOT
     Coordinates (X,Y,Z):    1.500000E+00    1.000000E-03    7.909091E-01
     TEMPORAL STATISTIC: RUNNING AVERAGE
  34 ID: visibility_time_averaged
     QUANTITY: VISIBILITY
     Species ID: SOOT
     Coordinates (X,Y,Z):    1.500000E+00    1.000000E-03    8.202020E-01
     TEMPORAL STATISTIC: RUNNING AVERAGE
  35 ID: visibility_time_averaged
     QUANTITY: VISIBILITY
     Species ID: SOOT
     Coordinates (X,Y,Z):    1.500000E+00    1.000000E-03    8.494949E-01
     TEMPORAL STATISTIC: RUNNING AVERAGE
  36 ID: visibility_time_averaged
     QUANTITY: VISIBILITY
     Species ID: SOOT
     Coordinates (X,Y,Z):    1.500000E+00    1.000000E-03    8.787879E-01
     TEMPORAL STATISTIC: RUNNING AVERAGE
  37 ID: visibility_time_averaged
     QUANTITY: VISIBILITY
     Species ID: SOOT
     Coordinates (X,Y,Z):    1.500000E+00    1.000000E-03    9.080808E-01
     TEMPORAL STATISTIC: RUNNING AVERAGE
  38 ID: visibility_time_averaged
     QUANTITY: VISIBILITY
     Species ID: SOOT
     Coordinates (X,Y,Z):    1.500000E+00    1.000000E-03    9.373737E-01
     TEMPORAL STATISTIC: RUNNING AVERAGE
  39 ID: visibility_time_averaged
     QUANTITY: VISIBILITY
     Species ID: SOOT
     Coordinates (X,Y,Z):    1.500000E+00    1.000000E-03    9.666667E-01
     TEMPORAL STATISTIC: RUNNING AVERAGE
  40 ID: visibility_time_averaged
     QUANTITY: VISIBILITY
     Species ID: SOOT
     Coordinates (X,Y,Z):    1.500000E+00    1.000000E-03    9.959596E-01
     TEMPORAL STATISTIC: RUNNING AVERAGE
  41 ID: visibility_time_averaged
     QUANTITY: VISIBILITY
     Species ID: SOOT
     Coordinates (X,Y,Z):    1.500000E+00    1.000000E-03    1.025253E+00
     TEMPORAL STATISTIC: RUNNING AVERAGE
  42 ID: visibility_time_averaged
     QUANTITY: VISIBILITY
     Species ID: SOOT
     Coordinates (X,Y,Z):    1.500000E+00    1.000000E-03    1.054545E+00
     TEMPORAL STATISTIC: RUNNING AVERAGE
  43 ID: visibility_time_averaged
     QUANTITY: VISIBILITY
     Species ID: SOOT
     Coordinates (X,Y,Z):    1.500000E+00    1.000000E-03    1.083838E+00
     TEMPORAL STATISTIC: RUNNING AVERAGE
  44 ID: visibility_time_averaged
     QUANTITY: VISIBILITY
     Species ID: SOOT
     Coordinates (X,Y,Z):    1.500000E+00    1.000000E-03    1.113131E+00
     TEMPORAL STATISTIC: RUNNING AVERAGE
  45 ID: visibility_time_averaged
     QUANTITY: VISIBILITY
     Species ID: SOOT
     Coordinates (X,Y,Z):    1.500000E+00    1.000000E-03    1.142424E+00
     TEMPORAL STATISTIC: RUNNING AVERAGE
  46 ID: visibility_time_averaged
     QUANTITY: VISIBILITY
     Species ID: SOOT
     Coordinates (X,Y,Z):    1.500000E+00    1.000000E-03    1.171717E+00
     TEMPORAL STATISTIC: RUNNING AVERAGE
  47 ID: visibility_time_averaged
     QUANTITY: VISIBILITY
     Species ID: SOOT
     Coordinates (X,Y,Z):    1.500000E+00    1.000000E-03    1.201010E+00
     TEMPORAL STATISTIC: RUNNING AVERAGE
  48 ID: visibility_time_averaged
     QUANTITY: VISIBILITY
     Species ID: SOOT
     Coordinates (X,Y,Z):    1.500000E+00    1.000000E-03    1.230303E+00
     TEMPORAL STATISTIC: RUNNING AVERAGE
  49 ID: visibility_time_averaged
     QUANTITY: VISIBILITY
     Species ID: SOOT
     Coordinates (X,Y,Z):    1.500000E+00    1.000000E-03    1.259596E+00
     TEMPORAL STATISTIC: RUNNING AVERAGE
  50 ID: visibility_time_averaged
     QUANTITY: VISIBILITY
     Species ID: SOOT
     Coordinates (X,Y,Z):    1.500000E+00    1.000000E-03    1.288889E+00
     TEMPORAL STATISTIC: RUNNING AVERAGE
  51 ID: visibility_time_averaged
     QUANTITY: VISIBILITY
     Species ID: SOOT
     Coordinates (X,Y,Z):    1.500000E+00    1.000000E-03    1.318182E+00
     TEMPORAL STATISTIC: RUNNING AVERAGE
  52 ID: visibility_time_averaged
     QUANTITY: VISIBILITY
     Species ID: SOOT
     Coordinates (X,Y,Z):    1.500000E+00    1.000000E-03    1.347475E+00
     TEMPORAL STATISTIC: RUNNING AVERAGE
  53 ID: visibility_time_averaged
     QUANTITY: VISIBILITY
     Species ID: SOOT
     Coordinates (X,Y,Z):    1.500000E+00    1.000000E-03    1.376768E+00
     TEMPORAL STATISTIC: RUNNING AVERAGE
  54 ID: visibility_time_averaged
     QUANTITY: VISIBILITY
     Species ID: SOOT
     Coordinates (X,Y,Z):    1.500000E+00    1.000000E-03    1.406061E+00
     TEMPORAL STATISTIC: RUNNING AVERAGE
  55 ID: visibility_time_averaged
     QUANTITY: VISIBILITY
     Species ID: SOOT
     Coordinates (X,Y,Z):    1.500000E+00    1.000000E-03    1.435354E+00
     TEMPORAL STATISTIC: RUNNING AVERAGE
  56 ID: visibility_time_averaged
     QUANTITY: VISIBILITY
     Species ID: SOOT
     Coordinates (X,Y,Z):    1.500000E+00    1.000000E-03    1.464646E+00
     TEMPORAL STATISTIC: RUNNING AVERAGE
  57 ID: visibility_time_averaged
     QUANTITY: VISIBILITY
     Species ID: SOOT
     Coordinates (X,Y,Z):    1.500000E+00    1.000000E-03    1.493939E+00
     TEMPORAL STATISTIC: RUNNING AVERAGE
  58 ID: visibility_time_averaged
     QUANTITY: VISIBILITY
     Species ID: SOOT
     Coordinates (X,Y,Z):    1.500000E+00    1.000000E-03    1.523232E+00
     TEMPORAL STATISTIC: RUNNING AVERAGE
  59 ID: visibility_time_averaged
     QUANTITY: VISIBILITY
     Species ID: SOOT
     Coordinates (X,Y,Z):    1.500000E+00    1.000000E-03    1.552525E+00
     TEMPORAL STATISTIC: RUNNING AVERAGE
  60 ID: visibility_time_averaged
     QUANTITY: VISIBILITY
     Species ID: SOOT
     Coordinates (X,Y,Z):    1.500000E+00    1.000000E-03    1.581818E+00
     TEMPORAL STATISTIC: RUNNING AVERAGE
  61 ID: visibility_time_averaged
     QUANTITY: VISIBILITY
     Species ID: SOOT
     Coordinates (X,Y,Z):    1.500000E+00    1.000000E-03    1.611111E+00
     TEMPORAL STATISTIC: RUNNING AVERAGE
  62 ID: visibility_time_averaged
     QUANTITY: VISIBILITY
     Species ID: SOOT
     Coordinates (X,Y,Z):    1.500000E+00    1.000000E-03    1.640404E+00
     TEMPORAL STATISTIC: RUNNING AVERAGE
  63 ID: visibility_time_averaged
     QUANTITY: VISIBILITY
     Species ID: SOOT
     Coordinates (X,Y,Z):    1.500000E+00    1.000000E-03    1.669697E+00
     TEMPORAL STATISTIC: RUNNING AVERAGE
  64 ID: visibility_time_averaged
     QUANTITY: VISIBILITY
     Species ID: SOOT
     Coordinates (X,Y,Z):    1.500000E+00    1.000000E-03    1.698990E+00
     TEMPORAL STATISTIC: RUNNING AVERAGE
  65 ID: visibility_time_averaged
     QUANTITY: VISIBILITY
     Species ID: SOOT
     Coordinates (X,Y,Z):    1.500000E+00    1.000000E-03    1.728283E+00
     TEMPORAL STATISTIC: RUNNING AVERAGE
  66 ID: visibility_time_averaged
     QUANTITY: VISIBILITY
     Species ID: SOOT
     Coordinates (X,Y,Z):    1.500000E+00    1.000000E-03    1.757576E+00
     TEMPORAL STATISTIC: RUNNING AVERAGE
  67 ID: visibility_time_averaged
     QUANTITY: VISIBILITY
     Species ID: SOOT
     Coordinates (X,Y,Z):    1.500000E+00    1.000000E-03    1.786869E+00
     TEMPORAL STATISTIC: RUNNING AVERAGE
  68 ID: visibility_time_averaged
     QUANTITY: VISIBILITY
     Species ID: SOOT
     Coordinates (X,Y,Z):    1.500000E+00    1.000000E-03    1.816162E+00
     TEMPORAL STATISTIC: RUNNING AVERAGE
  69 ID: visibility_time_averaged
     QUANTITY: VISIBILITY
     Species ID: SOOT
     Coordinates (X,Y,Z):    1.500000E+00    1.000000E-03    1.845455E+00
     TEMPORAL STATISTIC: RUNNING AVERAGE
  70 ID: visibility_time_averaged
     QUANTITY: VISIBILITY
     Species ID: SOOT
     Coordinates (X,Y,Z):    1.500000E+00    1.000000E-03    1.874747E+00
     TEMPORAL STATISTIC: RUNNING AVERAGE
  71 ID: visibility_time_averaged
     QUANTITY: VISIBILITY
     Species ID: SOOT
     Coordinates (X,Y,Z):    1.500000E+00    1.000000E-03    1.904040E+00
     TEMPORAL STATISTIC: RUNNING AVERAGE
  72 ID: visibility_time_averaged
     QUANTITY: VISIBILITY
     Species ID: SOOT
     Coordinates (X,Y,Z):    1.500000E+00    1.000000E-03    1.933333E+00
     TEMPORAL STATISTIC: RUNNING AVERAGE
  73 ID: visibility_time_averaged
     QUANTITY: VISIBILITY
     Species ID: SOOT
     Coordinates (X,Y,Z):    1.500000E+00    1.000000E-03    1.962626E+00
     TEMPORAL STATISTIC: RUNNING AVERAGE
  74 ID: visibility_time_averaged
     QUANTITY: VISIBILITY
     Species ID: SOOT
     Coordinates (X,Y,Z):    1.500000E+00    1.000000E-03    1.991919E+00
     TEMPORAL STATISTIC: RUNNING AVERAGE
  75 ID: visibility_time_averaged
     QUANTITY: VISIBILITY
     Species ID: SOOT
     Coordinates (X,Y,Z):    1.500000E+00    1.000000E-03    2.021212E+00
     TEMPORAL STATISTIC: RUNNING AVERAGE
  76 ID: visibility_time_averaged
     QUANTITY: VISIBILITY
     Species ID: SOOT
     Coordinates (X,Y,Z):    1.500000E+00    1.000000E-03    2.050505E+00
     TEMPORAL STATISTIC: RUNNING AVERAGE
  77 ID: visibility_time_averaged
     QUANTITY: VISIBILITY
     Species ID: SOOT
     Coordinates (X,Y,Z):    1.500000E+00    1.000000E-03    2.079798E+00
     TEMPORAL STATISTIC: RUNNING AVERAGE
  78 ID: visibility_time_averaged
     QUANTITY: VISIBILITY
     Species ID: SOOT
     Coordinates (X,Y,Z):    1.500000E+00    1.000000E-03    2.109091E+00
     TEMPORAL STATISTIC: RUNNING AVERAGE
  79 ID: visibility_time_averaged
     QUANTITY: VISIBILITY
     Species ID: SOOT
     Coordinates (X,Y,Z):    1.500000E+00    1.000000E-03    2.138384E+00
     TEMPORAL STATISTIC: RUNNING AVERAGE
  80 ID: visibility_time_averaged
     QUANTITY: VISIBILITY
     Species ID: SOOT
     Coordinates (X,Y,Z):    1.500000E+00    1.000000E-03    2.167677E+00
     TEMPORAL STATISTIC: RUNNING AVERAGE
  81 ID: visibility_time_averaged
     QUANTITY: VISIBILITY
     Species ID: SOOT
     Coordinates (X,Y,Z):    1.500000E+00    1.000000E-03    2.196970E+00
     TEMPORAL STATISTIC: RUNNING AVERAGE
  82 ID: visibility_time_averaged
     QUANTITY: VISIBILITY
     Species ID: SOOT
     Coordinates (X,Y,Z):    1.500000E+00    1.000000E-03    2.226263E+00
     TEMPORAL STATISTIC: RUNNING AVERAGE
  83 ID: visibility_time_averaged
     QUANTITY: VISIBILITY
     Species ID: SOOT
     Coordinates (X,Y,Z):    1.500000E+00    1.000000E-03    2.255556E+00
     TEMPORAL STATISTIC: RUNNING AVERAGE
  84 ID: visibility_time_averaged
     QUANTITY: VISIBILITY
     Species ID: SOOT
     Coordinates (X,Y,Z):    1.500000E+00    1.000000E-03    2.284848E+00
     TEMPORAL STATISTIC: RUNNING AVERAGE
  85 ID: visibility_time_averaged
     QUANTITY: VISIBILITY
     Species ID: SOOT
     Coordinates (X,Y,Z):    1.500000E+00    1.000000E-03    2.314141E+00
     TEMPORAL STATISTIC: RUNNING AVERAGE
  86 ID: visibility_time_averaged
     QUANTITY: VISIBILITY
     Species ID: SOOT
     Coordinates (X,Y,Z):    1.500000E+00    1.000000E-03    2.343434E+00
     TEMPORAL STATISTIC: RUNNING AVERAGE
  87 ID: visibility_time_averaged
     QUANTITY: VISIBILITY
     Species ID: SOOT
     Coordinates (X,Y,Z):    1.500000E+00    1.000000E-03    2.372727E+00
     TEMPORAL STATISTIC: RUNNING AVERAGE
  88 ID: visibility_time_averaged
     QUANTITY: VISIBILITY
     Species ID: SOOT
     Coordinates (X,Y,Z):    1.500000E+00    1.000000E-03    2.402020E+00
     TEMPORAL STATISTIC: RUNNING AVERAGE
  89 ID: visibility_time_averaged
     QUANTITY: VISIBILITY
     Species ID: SOOT
     Coordinates (X,Y,Z):    1.500000E+00    1.000000E-03    2.431313E+00
     TEMPORAL STATISTIC: RUNNING AVERAGE
  90 ID: visibility_time_averaged
     QUANTITY: VISIBILITY
     Species ID: SOOT
     Coordinates (X,Y,Z):    1.500000E+00    1.000000E-03    2.460606E+00
     TEMPORAL STATISTIC: RUNNING AVERAGE
  91 ID: visibility_time_averaged
     QUANTITY: VISIBILITY
     Species ID: SOOT
     Coordinates (X,Y,Z):    1.500000E+00    1.000000E-03    2.489899E+00
     TEMPORAL STATISTIC: RUNNING AVERAGE
  92 ID: visibility_time_averaged
     QUANTITY: VISIBILITY
     Species ID: SOOT
     Coordinates (X,Y,Z):    1.500000E+00    1.000000E-03    2.519192E+00
     TEMPORAL STATISTIC: RUNNING AVERAGE
  93 ID: visibility_time_averaged
     QUANTITY: VISIBILITY
     Species ID: SOOT
     Coordinates (X,Y,Z):    1.500000E+00    1.000000E-03    2.548485E+00
     TEMPORAL STATISTIC: RUNNING AVERAGE
  94 ID: visibility_time_averaged
     QUANTITY: VISIBILITY
     Species ID: SOOT
     Coordinates (X,Y,Z):    1.500000E+00    1.000000E-03    2.577778E+00
     TEMPORAL STATISTIC: RUNNING AVERAGE
  95 ID: visibility_time_averaged
     QUANTITY: VISIBILITY
     Species ID: SOOT
     Coordinates (X,Y,Z):    1.500000E+00    1.000000E-03    2.607071E+00
     TEMPORAL STATISTIC: RUNNING AVERAGE
  96 ID: visibility_time_averaged
     QUANTITY: VISIBILITY
     Species ID: SOOT
     Coordinates (X,Y,Z):    1.500000E+00    1.000000E-03    2.636364E+00
     TEMPORAL STATISTIC: RUNNING AVERAGE
  97 ID: visibility_time_averaged
     QUANTITY: VISIBILITY
     Species ID: SOOT
     Coordinates (X,Y,Z):    1.500000E+00    1.000000E-03    2.665657E+00
     TEMPORAL STATISTIC: RUNNING AVERAGE
  98 ID: visibility_time_averaged
     QUANTITY: VISIBILITY
     Species ID: SOOT
     Coordinates (X,Y,Z):    1.500000E+00    1.000000E-03    2.694949E+00
     TEMPORAL STATISTIC: RUNNING AVERAGE
  99 ID: visibility_time_averaged
     QUANTITY: VISIBILITY
     Species ID: SOOT
     Coordinates (X,Y,Z):    1.500000E+00    1.000000E-03    2.724242E+00
     TEMPORAL STATISTIC: RUNNING AVERAGE
 100 ID: visibility_time_averaged
     QUANTITY: VISIBILITY
     Species ID: SOOT
     Coordinates (X,Y,Z):    1.500000E+00    1.000000E-03    2.753535E+00
     TEMPORAL STATISTIC: RUNNING AVERAGE
 101 ID: visibility_time_averaged
     QUANTITY: VISIBILITY
     Species ID: SOOT
     Coordinates (X,Y,Z):    1.500000E+00    1.000000E-03    2.782828E+00
     TEMPORAL STATISTIC: RUNNING AVERAGE
 102 ID: visibility_time_averaged
     QUANTITY: VISIBILITY
     Species ID: SOOT
     Coordinates (X,Y,Z):    1.500000E+00    1.000000E-03    2.812121E+00
     TEMPORAL STATISTIC: RUNNING AVERAGE
 103 ID: visibility_time_averaged
     QUANTITY: VISIBILITY
     Species ID: SOOT
     Coordinates (X,Y,Z):    1.500000E+00    1.000000E-03    2.841414E+00
     TEMPORAL STATISTIC: RUNNING AVERAGE
 104 ID: visibility_time_averaged
     QUANTITY: VISIBILITY
     Species ID: SOOT
     Coordinates (X,Y,Z):    1.500000E+00    1.000000E-03    2.870707E+00
     TEMPORAL STATISTIC: RUNNING AVERAGE
 105 ID: visibility_time_averaged
     QUANTITY: VISIBILITY
     Species ID: SOOT
     Coordinates (X,Y,Z):    1.500000E+00    1.000000E-03    2.900000E+00
     TEMPORAL STATISTIC: RUNNING AVERAGE


 Slice File Information, Mesh     1

   1 Nodes:   0  30  20  20   0  30, Quantity: VELOCITY
   2 Nodes:   0  30  20  20   0  30, Quantity: U-VELOCITY
   3 Nodes:   0  30  20  20   0  30, Quantity: V-VELOCITY
   4 Nodes:   0  30  20  20   0  30, Quantity: W-VELOCITY
   5 Nodes:   0  30  20  20   0  30, Quantity: TEMPERATURE


 Slice File Information, Mesh     2

   1 Nodes:   0  30   0   0   0  30, Quantity: VELOCITY
   2 Nodes:   0  30   0   0   0  30, Quantity: U-VELOCITY
   3 Nodes:   0  30   0   0   0  30, Quantity: V-VELOCITY
   4 Nodes:   0  30   0   0   0  30, Quantity: W-VELOCITY
   5 Nodes:   0  30   0   0   0  30, Quantity: TEMPERATURE


 Radiation Model Information

   Number of control angles  104
   Time step increment         3
   Angle increment             5
   Theta band N_phi   Solid angle
     1:        4     0.120
     2:       12     0.114
     3:       16     0.127
     4:       20     0.120
     5:       20     0.120
     6:       16     0.127
     7:       12     0.114
     8:        4     0.120
   Using gray gas absorption.
   Mean beam length  1.000E-01 m


 Pressure Zone Information

   1 Volume: 3.5920E+01 m3, Cells: 35920, Mesh: 2, Indices: (30,20,30)
 
 

 Run Time Diagnostics

       Time Step        1   January 14, 2026  15:57:01
       Step Size:    0.922E-01 s, Total Time:      0.092 s
       Pressure Iterations: 1
       Maximum Velocity Error:  0.38E-02 on Mesh 1 at (13,20,5)
       Maximum Pressure Error:  0.22E-05 on Mesh 2 at (13,1,4)
       ---------------------------------------------------------------
       Mesh    1
       Max CFL number:  0.24E-01 at (4,16,22)
       Max divergence: -0.28E-05 at (22,9,2)
       Min divergence: -0.86E-03 at (16,18,5)
       Max VN number:   0.25E-01 at (30,16,29)
       Mesh    2
       Max CFL number:  0.24E-01 at (28,3,24)
       Max divergence: -0.30E-05 at (23,17,2)
       Min divergence: -0.84E-03 at (14,1,6)
       Max VN number:   0.23E-01 at (4,11,30)
 
       Time Step        2   January 14, 2026  15:57:01
       Step Size:    0.922E-01 s, Total Time:       0.18 s
       Pressure Iterations: 2
       Maximum Velocity Error:  0.22E-01 on Mesh 1 at (12,20,1)
       Maximum Pressure Error:  0.26E-02 on Mesh 1 at (17,18,2)
       ---------------------------------------------------------------
       Mesh    1
       Max CFL number:  0.24E-01 at (4,16,22)
       Max divergence:  0.34E+00 at (14,19,6)
       Min divergence: -0.74E-03 at (20,8,29)
       Max VN number:   0.25E-01 at (30,16,29)
       Total Heat Release Rate:              4.656 kW
       Mesh    2
       Max CFL number:  0.23E-01 at (28,3,24)
       Max divergence:  0.32E+00 at (13,1,1)
       Min divergence: -0.74E-03 at (19,8,29)
       Max VN number:   0.23E-01 at (4,11,30)
       Total Heat Release Rate:              4.581 kW
 
       Time Step        3   January 14, 2026  15:57:02
       Step Size:    0.922E-01 s, Total Time:       0.28 s
       Pressure Iterations: 1
       Maximum Velocity Error:  0.45E-01 on Mesh 1 at (13,20,1)
       Maximum Pressure Error:  0.98E+00 on Mesh 1 at (17,18,1)
       ---------------------------------------------------------------
       Mesh    1
       Max CFL number:  0.54E-01 at (13,19,4)
       Max divergence:  0.42E+00 at (17,18,5)
       Min divergence: -0.52E-03 at (9,18,29)
       Max VN number:   0.25E-01 at (30,16,29)
       Total Heat Release Rate:              3.630 kW
       Radiation Loss to Boundaries:        -0.440 kW
       Mesh    2
       Max CFL number:  0.56E-01 at (13,1,1)
       Max divergence:  0.53E+00 at (14,2,6)
       Min divergence: -0.33E-02 at (13,1,3)
       Max VN number:   0.23E-01 at (4,11,30)
       Total Heat Release Rate:              3.670 kW
       Radiation Loss to Boundaries:        -0.427 kW
 
       Time Step        4   January 14, 2026  15:57:02
       Step Size:    0.922E-01 s, Total Time:       0.37 s
       Pressure Iterations: 5
       Maximum Velocity Error:  0.46E-01 on Mesh 1 at (13,20,1)
       Maximum Pressure Error:  0.81E+01 on Mesh 1 at (17,18,1)
       ---------------------------------------------------------------
       Mesh    1
       Max CFL number:  0.81E-01 at (17,18,5)
       Max divergence:  0.33E+01 at (16,18,1)
       Min divergence: -0.36E-02 at (9,18,29)
       Max VN number:   0.25E-01 at (30,16,29)
       Total Heat Release Rate:             23.865 kW
       Radiation Loss to Boundaries:        -0.895 kW
       Mesh    2
       Max CFL number:  0.82E-01 at (14,3,5)
       Max divergence:  0.30E+01 at (15,3,1)
       Min divergence: -0.36E-02 at (19,8,29)
       Max VN number:   0.23E-01 at (4,11,30)
       Total Heat Release Rate:             23.449 kW
       Radiation Loss to Boundaries:        -0.895 kW
 
       Time Step        5   January 14, 2026  15:57:02
       Step Size:    0.922E-01 s, Total Time:       0.46 s
       Pressure Iterations: 6
       Maximum Velocity Error:  0.31E-01 on Mesh 1 at (13,20,2)
       Maximum Pressure Error:  0.12E+03 on Mesh 1 at (16,18,1)
       ---------------------------------------------------------------
       Mesh    1
       Max CFL number:  0.46E+00 at (16,18,1)
       Max divergence:  0.12E+01 at (17,18,1)
       Min divergence: -0.21E-02 at (1,1,30)
       Max VN number:   0.73E-01 at (16,18,1)
       Total Heat Release Rate:             16.160 kW
       Radiation Loss to Boundaries:        -2.818 kW
       Mesh    2
       Max CFL number:  0.42E+00 at (15,3,1)
       Max divergence:  0.13E+01 at (14,3,1)
       Min divergence: -0.21E-02 at (30,20,30)
       Max VN number:   0.65E-01 at (15,3,1)
       Total Heat Release Rate:             15.690 kW
       Radiation Loss to Boundaries:        -2.718 kW
 
       Time Step        6   January 14, 2026  15:57:02
       Step Size:    0.922E-01 s, Total Time:       0.55 s
       Pressure Iterations: 4
       Maximum Velocity Error:  0.40E-01 on Mesh 1 at (18,20,1)
       Maximum Pressure Error:  0.13E+02 on Mesh 2 at (16,3,1)
       ---------------------------------------------------------------
       Mesh    1
       Max CFL number:  0.43E+00 at (16,18,2)
       Max divergence:  0.25E+01 at (18,20,2)
       Min divergence: -0.39E-02 at (30,1,30)
       Max VN number:   0.64E-01 at (17,18,2)
       Total Heat Release Rate:             29.577 kW
       Radiation Loss to Boundaries:        -4.732 kW
       Mesh    2
       Max CFL number:  0.39E+00 at (14,3,2)
       Max divergence:  0.23E+01 at (13,1,2)
       Min divergence: -0.39E-02 at (30,20,30)
       Max VN number:   0.11E+00 at (17,4,1)
       Total Heat Release Rate:             29.453 kW
       Radiation Loss to Boundaries:        -4.512 kW
 
       Time Step        7   January 14, 2026  15:57:02
       Step Size:    0.922E-01 s, Total Time:       0.65 s
       Pressure Iterations: 6
       Maximum Velocity Error:  0.35E-01 on Mesh 1 at (18,20,1)
       Maximum Pressure Error:  0.27E+02 on Mesh 2 at (18,2,1)
       ---------------------------------------------------------------
       Mesh    1
       Max CFL number:  0.70E+00 at (16,18,3)
       Max divergence:  0.13E+01 at (15,18,2)
       Min divergence: -0.28E-02 at (30,1,30)
       Max VN number:   0.21E+00 at (17,18,2)
       Total Heat Release Rate:             27.465 kW
       Radiation Loss to Boundaries:        -9.389 kW
       Mesh    2
       Max CFL number:  0.66E+00 at (17,3,5)
       Max divergence:  0.13E+01 at (15,3,2)
       Min divergence: -0.27E-01 at (18,1,3)
       Max VN number:   0.15E+00 at (14,3,2)
       Total Heat Release Rate:             27.612 kW
       Radiation Loss to Boundaries:        -9.208 kW
 
       Time Step        8   January 14, 2026  15:57:02
       Step Size:    0.781E-01 s, Total Time:       0.72 s
       Pressure Iterations: 4
       Maximum Velocity Error:  0.39E-01 on Mesh 1 at (18,20,1)
       Maximum Pressure Error:  0.15E+02 on Mesh 1 at (13,20,1)
       ---------------------------------------------------------------
       Mesh    1
       Max CFL number:  0.85E+00 at (16,18,2)
       Max divergence:  0.27E+01 at (13,20,2)
       Min divergence: -0.42E-02 at (30,1,30)
       Max VN number:   0.13E+00 at (17,18,6)
       Total Heat Release Rate:             38.655 kW
       Radiation Loss to Boundaries:       -11.758 kW
       Mesh    2
       Max CFL number:  0.80E+00 at (17,3,5)
       Max divergence:  0.25E+01 at (18,1,2)
       Min divergence: -0.42E-02 at (30,20,30)
       Max VN number:   0.14E+00 at (17,3,6)
       Total Heat Release Rate:             38.575 kW
       Radiation Loss to Boundaries:       -11.548 kW
 
       Time Step        9   January 14, 2026  15:57:02
       Step Size:    0.612E-01 s, Total Time:       0.78 s
       Pressure Iterations: 4
       Maximum Velocity Error:  0.27E-01 on Mesh 1 at (18,20,1)
       Maximum Pressure Error:  0.20E+02 on Mesh 1 at (13,20,2)
       ---------------------------------------------------------------
       Mesh    1
       Max CFL number:  0.85E+00 at (16,18,4)
       Max divergence:  0.12E+01 at (18,19,5)
       Min divergence: -0.39E-02 at (30,1,30)
       Max VN number:   0.19E+00 at (17,18,6)
       Total Heat Release Rate:             40.908 kW
       Radiation Loss to Boundaries:       -15.867 kW
       Mesh    2
       Max CFL number:  0.80E+00 at (14,3,5)
       Max divergence:  0.12E+01 at (13,2,5)
       Min divergence: -0.39E-02 at (30,20,30)
       Max VN number:   0.20E+00 at (17,3,6)
       Total Heat Release Rate:             41.097 kW
       Radiation Loss to Boundaries:       -15.831 kW
 
       Time Step       10   January 14, 2026  15:57:02
       Step Size:    0.523E-01 s, Total Time:       0.84 s
       Pressure Iterations: 2
       Maximum Velocity Error:  0.24E-01 on Mesh 1 at (17,20,2)
       Maximum Pressure Error:  0.18E+02 on Mesh 2 at (14,3,6)
       ---------------------------------------------------------------
       Mesh    1
       Max CFL number:  0.87E+00 at (16,18,5)
       Max divergence:  0.14E+01 at (18,20,2)
       Min divergence: -0.44E-02 at (30,1,30)
       Max VN number:   0.25E+00 at (17,18,6)
       Total Heat Release Rate:             45.034 kW
       Radiation Loss to Boundaries:       -16.819 kW
       Mesh    2
       Max CFL number:  0.83E+00 at (15,3,5)
       Max divergence:  0.14E+01 at (13,1,2)
       Min divergence: -0.44E-02 at (30,20,30)
       Max VN number:   0.25E+00 at (14,3,6)
       Total Heat Release Rate:             45.225 kW
       Radiation Loss to Boundaries:       -16.875 kW
 
       Time Step       20   January 14, 2026  15:57:03
       Step Size:    0.242E-01 s, Total Time:       1.17 s
       Pressure Iterations: 3
       Maximum Velocity Error:  0.36E-01 on Mesh 1 at (13,20,8)
       Maximum Pressure Error:  0.50E+02 on Mesh 1 at (16,18,10)
       ---------------------------------------------------------------
       Mesh    1
       Max CFL number:  0.88E+00 at (18,20,6)
       Max divergence:  0.24E+01 at (18,20,6)
       Min divergence: -0.72E+00 at (17,18,10)
       Max VN number:   0.30E+00 at (18,20,7)
       Total Heat Release Rate:             60.465 kW
       Radiation Loss to Boundaries:       -18.122 kW
       Mesh    2
       Max CFL number:  0.87E+00 at (13,1,6)
       Max divergence:  0.25E+01 at (13,1,6)
       Min divergence: -0.85E+00 at (15,3,9)
       Max VN number:   0.30E+00 at (13,1,7)
       Total Heat Release Rate:             60.454 kW
       Radiation Loss to Boundaries:       -18.001 kW
 
       Time Step       30   January 14, 2026  15:57:04
       Step Size:    0.217E-01 s, Total Time:       1.39 s
       Pressure Iterations: 3
       Maximum Velocity Error:  0.46E-01 on Mesh 2 at (13,0,12)
       Maximum Pressure Error:  0.41E+02 on Mesh 1 at (15,18,14)
       ---------------------------------------------------------------
       Mesh    1
       Max CFL number:  0.87E+00 at (18,20,10)
       Max divergence:  0.26E+01 at (18,20,6)
       Min divergence: -0.11E+01 at (18,20,11)
       Max VN number:   0.33E+00 at (18,20,11)
       Total Heat Release Rate:             61.441 kW
       Radiation Loss to Boundaries:       -14.461 kW
       Mesh    2
       Max CFL number:  0.86E+00 at (13,1,10)
       Max divergence:  0.26E+01 at (13,1,6)
       Min divergence: -0.10E+01 at (18,1,12)
       Max VN number:   0.33E+00 at (13,1,11)
       Total Heat Release Rate:             61.298 kW
       Radiation Loss to Boundaries:       -14.462 kW
 
       Time Step       40   January 14, 2026  15:57:05
       Step Size:    0.189E-01 s, Total Time:       1.60 s
       Pressure Iterations: 4
       Maximum Velocity Error:  0.30E-01 on Mesh 1 at (13,20,14)
       Maximum Pressure Error:  0.29E+02 on Mesh 1 at (14,19,9)
       ---------------------------------------------------------------
       Mesh    1
       Max CFL number:  0.88E+00 at (18,20,12)
       Max divergence:  0.22E+01 at (18,20,6)
       Min divergence: -0.83E+00 at (13,20,15)
       Max VN number:   0.27E+00 at (18,20,15)
       Total Heat Release Rate:             65.177 kW
       Radiation Loss to Boundaries:       -15.153 kW
       Mesh    2
       Max CFL number:  0.89E+00 at (13,1,12)
       Max divergence:  0.22E+01 at (13,1,6)
       Min divergence: -0.91E+00 at (16,1,10)
       Max VN number:   0.27E+00 at (13,1,15)
       Total Heat Release Rate:             65.403 kW
       Radiation Loss to Boundaries:       -15.576 kW
 
       Time Step       50   January 14, 2026  15:57:06
       Step Size:    0.189E-01 s, Total Time:       1.79 s
       Pressure Iterations: 4
       Maximum Velocity Error:  0.26E-01 on Mesh 1 at (13,20,17)
       Maximum Pressure Error:  0.49E+02 on Mesh 2 at (16,2,12)
       ---------------------------------------------------------------
       Mesh    1
       Max CFL number:  0.80E+00 at (16,20,10)
       Max divergence:  0.22E+01 at (18,20,6)
       Min divergence: -0.10E+01 at (16,19,13)
       Max VN number:   0.23E+00 at (18,20,18)
       Total Heat Release Rate:             67.727 kW
       Radiation Loss to Boundaries:       -17.182 kW
       Mesh    2
       Max CFL number:  0.94E+00 at (16,1,12)
       Max divergence:  0.22E+01 at (13,1,6)
       Min divergence: -0.84E+00 at (16,2,13)
       Max VN number:   0.22E+00 at (13,1,18)
       Total Heat Release Rate:             67.829 kW
       Radiation Loss to Boundaries:       -17.104 kW
 
       Time Step       60   January 14, 2026  15:57:07
       Step Size:    0.189E-01 s, Total Time:       1.98 s
       Pressure Iterations: 4
       Maximum Velocity Error:  0.29E-01 on Mesh 1 at (12,20,15)
       Maximum Pressure Error:  0.72E+02 on Mesh 2 at (16,2,16)
       ---------------------------------------------------------------
       Mesh    1
       Max CFL number:  0.87E+00 at (16,20,13)
       Max divergence:  0.22E+01 at (13,20,6)
       Min divergence: -0.79E+00 at (16,20,7)
       Max VN number:   0.24E+00 at (17,20,15)
       Total Heat Release Rate:             68.707 kW
       Radiation Loss to Boundaries:       -17.305 kW
       Mesh    2
       Max CFL number:  0.92E+00 at (16,1,15)
       Max divergence:  0.22E+01 at (13,1,6)
       Min divergence: -0.81E+00 at (16,1,8)
       Max VN number:   0.21E+00 at (15,3,6)
       Total Heat Release Rate:             68.680 kW
       Radiation Loss to Boundaries:       -17.350 kW
 
       Time Step       70   January 14, 2026  15:57:08
       Step Size:    0.166E-01 s, Total Time:       2.15 s
       Pressure Iterations: 4
       Maximum Velocity Error:  0.40E-01 on Mesh 2 at (15,0,16)
       Maximum Pressure Error:  0.79E+02 on Mesh 1 at (15,19,12)
       ---------------------------------------------------------------
       Mesh    1
       Max CFL number:  0.91E+00 at (16,20,15)
       Max divergence:  0.24E+01 at (13,20,6)
       Min divergence: -0.98E+00 at (15,20,8)
       Max VN number:   0.26E+00 at (17,19,18)
       Total Heat Release Rate:             70.197 kW
       Radiation Loss to Boundaries:       -17.287 kW
       Mesh    2
       Max CFL number:  0.85E+00 at (16,1,14)
       Max divergence:  0.24E+01 at (13,1,6)
       Min divergence: -0.94E+00 at (15,1,10)
       Max VN number:   0.21E+00 at (14,2,19)
       Total Heat Release Rate:             70.300 kW
       Radiation Loss to Boundaries:       -17.397 kW
 
       Time Step       80   January 14, 2026  15:57:08
       Step Size:    0.149E-01 s, Total Time:       2.31 s
       Pressure Iterations: 5
       Maximum Velocity Error:  0.25E-01 on Mesh 1 at (16,20,20)
       Maximum Pressure Error:  0.77E+02 on Mesh 1 at (15,19,15)
       ---------------------------------------------------------------
       Mesh    1
       Max CFL number:  0.85E+00 at (15,19,18)
       Max divergence:  0.25E+01 at (16,18,6)
       Min divergence: -0.97E+00 at (16,20,9)
       Max VN number:   0.17E+00 at (16,20,22)
       Total Heat Release Rate:             70.505 kW
       Radiation Loss to Boundaries:       -17.215 kW
       Mesh    2
       Max CFL number:  0.93E+00 at (15,2,18)
       Max divergence:  0.25E+01 at (16,3,6)
       Min divergence: -0.13E+01 at (16,1,10)
       Max VN number:   0.18E+00 at (15,2,17)
       Total Heat Release Rate:             70.653 kW
       Radiation Loss to Boundaries:       -17.480 kW
 
       Time Step       90   January 14, 2026  15:57:09
       Step Size:    0.149E-01 s, Total Time:       2.46 s
       Pressure Iterations: 4
       Maximum Velocity Error:  0.38E-01 on Mesh 1 at (15,20,20)
       Maximum Pressure Error:  0.64E+02 on Mesh 1 at (16,19,17)
       ---------------------------------------------------------------
       Mesh    1
       Max CFL number:  0.87E+00 at (17,19,25)
       Max divergence:  0.26E+01 at (18,20,6)
       Min divergence: -0.10E+01 at (16,20,12)
       Max VN number:   0.23E+00 at (17,19,24)
       Total Heat Release Rate:             70.784 kW
       Radiation Loss to Boundaries:       -17.030 kW
       Mesh    2
       Max CFL number:  0.92E+00 at (16,1,21)
       Max divergence:  0.25E+01 at (16,3,6)
       Min divergence: -0.11E+01 at (16,1,15)
       Max VN number:   0.18E+00 at (18,2,23)
       Total Heat Release Rate:             71.195 kW
       Radiation Loss to Boundaries:       -17.901 kW
 
       Time Step      100   January 14, 2026  15:57:10
       Step Size:    0.149E-01 s, Total Time:       2.61 s
       Pressure Iterations: 4
       Maximum Velocity Error:  0.27E-01 on Mesh 1 at (17,20,24)
       Maximum Pressure Error:  0.11E+03 on Mesh 2 at (17,2,30)
       ---------------------------------------------------------------
       Mesh    1
       Max CFL number:  0.93E+00 at (16,19,22)
       Max divergence:  0.26E+01 at (16,18,6)
       Min divergence: -0.11E+01 at (16,20,10)
       Max VN number:   0.23E+00 at (14,19,27)
       Total Heat Release Rate:             71.091 kW
       Radiation Loss to Boundaries:       -16.949 kW
       Mesh    2
       Max CFL number:  0.95E+00 at (16,1,23)
       Max divergence:  0.26E+01 at (16,3,6)
       Min divergence: -0.97E+00 at (16,1,8)
       Max VN number:   0.26E+00 at (17,2,29)
       Total Heat Release Rate:             71.459 kW
       Radiation Loss to Boundaries:       -17.623 kW
 
       Time Step      200   January 14, 2026  15:57:19
       Step Size:    0.133E-01 s, Total Time:       3.92 s
       Pressure Iterations: 4
       Maximum Velocity Error:  0.30E-01 on Mesh 1 at (17,20,28)
       Maximum Pressure Error:  0.13E+03 on Mesh 1 at (17,20,30)
       ---------------------------------------------------------------
       Mesh    1
       Max CFL number:  0.80E+00 at (17,20,26)
       Max divergence:  0.28E+01 at (18,20,6)
       Min divergence: -0.99E+00 at (16,20,16)
       Max VN number:   0.47E+00 at (30,16,29)
       Total Heat Release Rate:             71.986 kW
       Radiation Loss to Boundaries:       -17.280 kW
       Mesh    2
       Max CFL number:  0.81E+00 at (17,1,25)
       Max divergence:  0.28E+01 at (18,1,6)
       Min divergence: -0.12E+01 at (16,1,13)
       Max VN number:   0.53E+00 at (30,5,29)
       Total Heat Release Rate:             70.735 kW
       Radiation Loss to Boundaries:       -16.641 kW
 
       Time Step      277   January 14, 2026  15:57:26
       Step Size:    0.113E-01 s, Total Time:       5.00 s
       Pressure Iterations: 3
       Maximum Velocity Error:  0.31E-01 on Mesh 1 at (17,20,23)
       Maximum Pressure Error:  0.92E+02 on Mesh 1 at (18,18,30)
       ---------------------------------------------------------------
       Mesh    1
       Max CFL number:  0.67E+00 at (17,20,22)
       Max divergence:  0.25E+01 at (17,18,6)
       Min divergence: -0.90E+00 at (17,20,19)
       Max VN number:   0.57E+00 at (18,14,30)
       Total Heat Release Rate:             73.542 kW
       Radiation Loss to Boundaries:       -18.773 kW
       Mesh    2
       Max CFL number:  0.66E+00 at (17,1,25)
       Max divergence:  0.26E+01 at (14,3,1)
       Min divergence: -0.99E+00 at (17,2,8)
       Max VN number:   0.48E+00 at (20,7,30)
       Total Heat Release Rate:             72.731 kW
       Radiation Loss to Boundaries:       -16.855 kW
 


 DEVICE Activation Times

         1    timer                     T           2.001


 Time Stepping Wall Clock Time (s):       24.280
 Total Elapsed Wall Clock Time (s):       25.877

STOP: FDS completed successfully (CHID: supply_exhaust_vents)
