
 Fire Dynamics Simulator

 Current Date     : June 23, 2025  16:02:23
 Revision         : FDS-6.9.1-0-g889da6a-release
 Revision Date    : Sun Apr 7 17:05:06 2024 -0400
 Compiler         : Intel(R) Fortran Intel(R) 64 Compiler Classic for applications running on Intel(R) 64, Version 2021.7.1 Build 20221019_000000
 Compilation Date : Apr 09, 2024 13:24:51

 Number of MPI Processes:  1

 MPI version: 3.1
 MPI library version: Intel(R) MPI Library 2021.6 for Linux* OS


 Job TITLE        : no_vents
 Job ID string    : no_vents


 Grid Dimensions, Mesh     1

   Cells in the X Direction            30
   Cells in the Y Direction            40
   Cells in the Z Direction            30
   Number of Grid Cells             36000


 Physical Dimensions, Mesh     1

   Length (m)                       3.000
   Width  (m)                       4.000
   Height (m)                       3.000

 Miscellaneous Parameters

   Total Number of Grid Cells       36000
   Maximum Cell Aspect Ratio        1.000
   Initial Time Step (s)            0.092
   CFL Velocity Norm                    2
   Simulation Start Time (s)          0.0
   Simulation End Time (s)           60.0
   Background Pressure (Pa)     101325.00
   Ambient Temperature (C)          20.00

   3D Cartesian
   VLES Calculation
   Eddy Viscosity Model:  Deardorff (C_DEARDORFF = 0.10)
   Surface INERT Eddy Viscosity Model:  WALE (C_WALE = 0.60)
   Surface fire1 Eddy Viscosity Model:  WALE (C_WALE = 0.60)
   Turbulent Prandtl Number:         0.50
   Turbulent Schmidt Number:         0.50


 Pressure solver information

   Solver:                            FFT
   Velocity tolerance (m/s):    5.000E-02
   Press eqn res tol (1/s^2):   2.000E+03
   Max pressure iterations:            10


 Background Stratification

      Z (m)     P_0 (Pa)    TMP_0 (C)
   ------------------------------------
        2.95    101290.42     20.00
        2.85    101291.59     20.00
        2.75    101292.77     20.00
        2.65    101293.93     20.00
        2.55    101295.11     20.00
        2.45    101296.28     20.00
        2.35    101297.45     20.00
        2.25    101298.62     20.00
        2.15    101299.80     20.00
        2.05    101300.96     20.00
        1.95    101302.14     20.00
        1.85    101303.31     20.00
        1.75    101304.48     20.00
        1.65    101305.65     20.00
        1.55    101306.83     20.00
        1.45    101308.00     20.00
        1.35    101309.17     20.00
        1.25    101310.34     20.00
        1.15    101311.51     20.00
        1.05    101312.69     20.00
        0.95    101313.86     20.00
        0.85    101315.03     20.00
        0.75    101316.20     20.00
        0.65    101317.38     20.00
        0.55    101318.54     20.00
        0.45    101319.72     20.00
        0.35    101320.89     20.00
        0.25    101322.06     20.00
        0.15    101323.23     20.00
        0.05    101324.41     20.00


 Mass Fraction Transformation Matrix to Convert Species Mixtures (Columns) to Primitive Species (Rows)

                         AIR       PROPANE   PRODUCTS
   NITROGEN              0.762470  0.000000  0.715513
   OXYGEN                0.230997  0.000000  0.000000
   CARBON DIOXIDE        0.000591  0.000000  0.173342
   WATER VAPOR           0.005941  0.000000  0.106218
   CARBON MONOXIDE       0.000000  0.000000  0.003079
   SOOT                  0.000000  0.000000  0.001848
   HYDROGEN              0.000000  0.000000  0.000000
   HYDROGEN CYANIDE      0.000000  0.000000  0.000000
   PROPANE               0.000000  1.000000  0.000000


 Primitive Species Information

   NITROGEN
   Gas Species
   Molecular Weight (g/mol)                28.01340
   Ambient Density (kg/m^3)                1.165
           Enthalpy of Formation (J/kg)  0.000E+00

   OXYGEN
   Gas Species
   Molecular Weight (g/mol)                31.99880
   Ambient Density (kg/m^3)                1.330
           Enthalpy of Formation (J/kg)  0.000E+00

   CARBON DIOXIDE
   Gas Species
   Molecular Weight (g/mol)                44.00950
   Ambient Density (kg/m^3)                1.830
           Enthalpy of Formation (J/kg) -8.941E+06

   WATER VAPOR
   Gas Species
   Molecular Weight (g/mol)                18.01528
   Ambient Density (kg/m^3)                0.749
           Enthalpy of Formation (J/kg) -1.342E+07

   CARBON MONOXIDE
   Gas Species
   Molecular Weight (g/mol)                28.01010
   Ambient Density (kg/m^3)                1.164
           Enthalpy of Formation (J/kg) -3.946E+06

   SOOT
   Gas Species
   Molecular Weight (g/mol)                12.01070
   Ambient Density (kg/m^3)                0.499
           Enthalpy of Formation (J/kg)  0.000E+00

   HYDROGEN
   Gas Species
   Molecular Weight (g/mol)                 2.01588
   Ambient Density (kg/m^3)                0.084
           Enthalpy of Formation (J/kg)  0.000E+00

   HYDROGEN CYANIDE
   Gas Species
   Molecular Weight (g/mol)                27.02534
   Ambient Density (kg/m^3)                1.123
           Enthalpy of Formation (J/kg)  4.924E+06

   PROPANE
   Gas Species
   Molecular Weight (g/mol)                44.09562
   Ambient Density (kg/m^3)                1.833
           Enthalpy of Formation (J/kg) -2.374E+06


 Tracked (Lumped) Species Information

   AIR
   Molecular Weight (g/mol)            28.75198
   Ambient Density (kg/m^3)            1.195
   Initial Mass Fraction               1.000
   Enthalpy of Formation (J/kg)     -8.504E+04

   Sub Species                    Mass Fraction     Mole Fraction
   NITROGEN                       7.624699E-01      7.825727E-01
   OXYGEN                         2.309974E-01      2.075588E-01
   CARBON DIOXIDE                 5.914650E-04      3.864118E-04
   WATER VAPOR                    5.941209E-03      9.482037E-03
 
     Viscosity (kg/m/s) Ambient,  293 K:  1.796E-05
                                  500 K:  2.612E-05
                                 1000 K:  4.125E-05
                                 1500 K:  5.371E-05
                                 2000 K:  6.476E-05
   Therm. Cond. (W/m/K) Ambient,  293 K:  2.556E-02
                                  500 K:  3.814E-02
                                 1000 K:  6.686E-02
                                 1500 K:  9.249E-02
                                 2000 K:  1.153E-01
        Enthalpy (J/kg) Ambient,  293 K: -9.012E+04
                                  500 K:  1.222E+05
                                 1000 K:  6.721E+05
                                 1500 K:  1.270E+06
                                 2000 K:  1.896E+06
    Spec. Heat (J/kg/K) Ambient,  293 K:  1.016E+03
                                  500 K:  1.042E+03
                                 1000 K:  1.156E+03
                                 1500 K:  1.229E+03
                                 2000 K:  1.270E+03
   Diff. Coeff. (m^2/s) Ambient,  293 K:  1.991E-05
                                  500 K:  4.961E-05
                                 1000 K:  1.580E-04
                                 1500 K:  3.095E-04
                                 2000 K:  4.984E-04
 Gibbs Energy Amb. (kJ/mol),  293 K: -5.873E+01
                                  500 K: -1.007E+02
                                 1000 K: -2.117E+02
                                 1500 K: -3.312E+02
                                 2000 K: -4.568E+02

   PROPANE
   Molecular Weight (g/mol)            44.09562
   Ambient Density (kg/m^3)            1.833
   Initial Mass Fraction               0.000
   Enthalpy of Formation (J/kg)     -2.374E+06

   Sub Species                    Mass Fraction     Mole Fraction
   PROPANE                        1.000000E+00      1.000000E+00
 
     Viscosity (kg/m/s) Ambient,  293 K:  8.079E-06
                                  500 K:  1.310E-05
                                 1000 K:  2.234E-05
                                 1500 K:  2.955E-05
                                 2000 K:  3.574E-05
   Therm. Cond. (W/m/K) Ambient,  293 K:  1.821E-02
                                  500 K:  4.581E-02
                                 1000 K:  1.212E-01
                                 1500 K:  1.890E-01
                                 2000 K:  2.465E-01
        Enthalpy (J/kg) Ambient,  293 K: -2.382E+06
                                  500 K: -1.946E+06
                                 1000 K: -2.769E+05
                                 1500 K:  1.900E+06
                                 2000 K:  4.336E+06
    Spec. Heat (J/kg/K) Ambient,  293 K:  1.646E+03
                                  500 K:  2.553E+03
                                 1000 K:  3.960E+03
                                 1500 K:  4.669E+03
                                 2000 K:  5.034E+03
   Diff. Coeff. (m^2/s) Ambient,  293 K:  1.110E-05
                                  500 K:  2.862E-05
                                 1000 K:  9.316E-05
                                 1500 K:  1.833E-04
                                 2000 K:  2.954E-04
 Gibbs Energy Amb. (kJ/mol),  293 K: -1.839E+02
                                  500 K: -2.447E+02
                                 1000 K: -4.295E+02
                                 1500 K: -6.584E+02
                                 2000 K: -9.217E+02

   PRODUCTS
   Molecular Weight (g/mol)            28.05811
   Ambient Density (kg/m^3)            1.166
   Initial Mass Fraction               0.000
   Enthalpy of Formation (J/kg)     -2.988E+06

   Sub Species                    Mass Fraction     Mole Fraction
   NITROGEN                       7.155130E-01      7.166551E-01
   CARBON DIOXIDE                 1.733421E-01      1.105137E-01
   WATER VAPOR                    1.062181E-01      1.654306E-01
   CARBON MONOXIDE                3.079264E-03      3.084543E-03
   SOOT                           1.847558E-03      4.316069E-03
   HYDROGEN CYANIDE               0.000000E+00      0.000000E+00
 
     Viscosity (kg/m/s) Ambient,  293 K:  1.611E-05
                                  500 K:  2.387E-05
                                 1000 K:  3.891E-05
                                 1500 K:  5.142E-05
                                 2000 K:  6.243E-05
   Therm. Cond. (W/m/K) Ambient,  293 K:  2.341E-02
                                  500 K:  3.618E-02
                                 1000 K:  6.714E-02
                                 1500 K:  9.636E-02
                                 2000 K:  1.226E-01
        Enthalpy (J/kg) Ambient,  293 K: -2.993E+06
                                  500 K: -2.762E+06
                                 1000 K: -2.151E+06
                                 1500 K: -1.472E+06
                                 2000 K: -7.516E+05
    Spec. Heat (J/kg/K) Ambient,  293 K:  1.092E+03
                                  500 K:  1.145E+03
                                 1000 K:  1.299E+03
                                 1500 K:  1.406E+03
                                 2000 K:  1.469E+03
   Diff. Coeff. (m^2/s) Ambient,  293 K:  1.955E-05
                                  500 K:  4.964E-05
                                 1000 K:  1.603E-04
                                 1500 K:  3.153E-04
                                 2000 K:  5.086E-04
 Gibbs Energy Amb. (kJ/mol),  293 K: -1.513E+02
                                  500 K: -1.934E+02
                                 1000 K: -3.057E+02
                                 1500 K: -4.275E+02
                                 2000 K: -5.562E+02


 Gas Phase Reaction Information

      Fuel                                           Heat of Combustion (kJ/kg)
      PROPANE                                                        44846.5961
      EPUMO2:                                                        12741.0299

      Primitive Species Stoich. Coeff.
      Species ID                                                          Molar
      OXYGEN                                                          -4.850502
      CARBON DIOXIDE                                                   2.811145
      WATER VAPOR                                                      4.000000
      CARBON MONOXIDE                                                  0.078714
      SOOT                                                             0.110141
      PROPANE                                                         -1.000000

      Tracked (Lumped) Species Stoich. Coeff.
      Species ID                                             Molar         Mass
      AIR                                               -23.369290   -15.237646
      PROPANE                                            -1.000000    -1.000000
      PRODUCTS                                           25.518788    16.237646

      Reaction Kinetics

      Fast chemistry

      ODE Solver:  EXPLICIT EULER

      Extinction Model:  EXTINCTION 1
      Auto-Ignition Temperature (C):            -273.1
      Critical Flame Temperature (C):           1447.0

      Prescribed Radiative Fraction:             0.290


 Material Information


 Surface Conditions

   0 INERT (DEFAULT)

   1 fire1
     HRR Per Unit Area (kW/m2)        150.0
     PROPANE Mass Flux (kg/s/m2)   3.345E-03

   2 OPEN
     Passive Vent to Atmosphere

   3 MIRROR
     Symmetry Plane

   4 INTERPOLATED

   5 PERIODIC

   6 HVAC

   7 MASSLESS TRACER

   8 DROPLET

   9 MASSLESS TARGET

  10 PERIODIC FLOW ONLY


 Lagrangian Particle Classes


 Cut-off Density and Temperature

    Minimum Temperature:  -259.1 C
    Maximum Temperature:  2726.8 C
    Minimum Density:  1.195E-01 kg/m3
    Maximum Density:  7.677E+01 kg/m3


 Device Information

   1 ID: eye_level_visibility
     QUANTITY: VISIBILITY
     Species ID: SOOT
     Coordinates (X,Y,Z):    1.500000E+00    1.000000E-03    1.500000E+00
     TEMPORAL STATISTIC: TIME AVERAGE
   2 ID: air_temperature
     QUANTITY: TEMPERATURE
     Coordinates (X,Y,Z):    1.500000E+00    1.000000E-03    1.500000E+00
     TEMPORAL STATISTIC: TIME AVERAGE


 Slice File Information, Mesh     1

   1 Nodes:   0  30  20  20   0  30, Quantity: VELOCITY
   2 Nodes:   0  30  20  20   0  30, Quantity: U-VELOCITY
   3 Nodes:   0  30  20  20   0  30, Quantity: V-VELOCITY
   4 Nodes:   0  30  20  20   0  30, Quantity: W-VELOCITY
   5 Nodes:   0  30  20  20   0  30, Quantity: TEMPERATURE
   6 Nodes:   0  30   0  40  25  25, Quantity: SOOT VISIBILITY
   7 Nodes:   0  30   0  40  15  15, Quantity: SOOT VISIBILITY
   8 Nodes:  15  15   0  40   0  30, Quantity: SOOT VISIBILITY
   9 Nodes:   0  30  15  15   0  30, Quantity: SOOT VISIBILITY
  10 Nodes:   0  30   0  40  25  25, Quantity: TEMPERATURE
  11 Nodes:   0  30   0  40  15  15, Quantity: TEMPERATURE
  12 Nodes:  15  15   0  40   0  30, Quantity: TEMPERATURE
  13 Nodes:   0  30  15  15   0  30, Quantity: TEMPERATURE


 Radiation Model Information

   Number of control angles  104
   Time step increment         3
   Angle increment             5
   Theta band N_phi   Solid angle
     1:        4     0.120
     2:       12     0.114
     3:       16     0.127
     4:       20     0.120
     5:       20     0.120
     6:       16     0.127
     7:       12     0.114
     8:        4     0.120
   Using gray gas absorption.
   Mean beam length  1.000E-01 m


 Pressure Zone Information

   1 Volume: 3.5795E+01 m3, Cells: 35795, Mesh: 1, Indices: (30,40,30)
 
 

 Run Time Diagnostics

       Time Step        1   June 23, 2025  16:02:23
       Step Size:    0.922E-01 s, Total Time:      0.092 s
       Pressure Iterations: 1
       Maximum Velocity Error:  0.16E-02 on Mesh 1 at (14,18,17)
       Maximum Pressure Error:  0.32E-05 on Mesh 1 at (16,13,16)
       ---------------------------------------------------------------
       Max CFL number:  0.24E-01 at (13,18,4)
       Max divergence: -0.25E-05 at (20,33,2)
       Min divergence: -0.87E-03 at (13,21,2)
       Max VN number:   0.23E-01 at (18,19,5)
 
       Time Step        2   June 23, 2025  16:02:23
       Step Size:    0.922E-01 s, Total Time:       0.18 s
       Pressure Iterations: 1
       Maximum Velocity Error:  0.50E-02 on Mesh 1 at (14,22,5)
       Maximum Pressure Error:  0.84E-02 on Mesh 1 at (17,23,5)
       ---------------------------------------------------------------
       Max CFL number:  0.23E-01 at (22,11,21)
       Max divergence:  0.34E+00 at (17,18,1)
       Min divergence: -0.75E-03 at (19,30,29)
       Max VN number:   0.23E-01 at (30,22,4)
       Total Heat Release Rate:              9.398 kW
 
       Time Step        3   June 23, 2025  16:02:23
       Step Size:    0.922E-01 s, Total Time:       0.28 s
       Pressure Iterations: 1
       Maximum Velocity Error:  0.14E-01 on Mesh 1 at (14,22,5)
       Maximum Pressure Error:  0.66E+00 on Mesh 1 at (14,19,6)
       ---------------------------------------------------------------
       Max CFL number:  0.60E-01 at (18,21,5)
       Max divergence:  0.12E+01 at (14,22,6)
       Min divergence: -0.16E-02 at (19,30,29)
       Max VN number:   0.23E-01 at (30,22,4)
       Total Heat Release Rate:             20.564 kW
       Radiation Loss to Boundaries:        -1.029 kW
 
       Time Step        4   June 23, 2025  16:02:23
       Step Size:    0.922E-01 s, Total Time:       0.37 s
       Pressure Iterations: 1
       Maximum Velocity Error:  0.48E-01 on Mesh 1 at (17,20,5)
       Maximum Pressure Error:  0.84E+01 on Mesh 1 at (18,22,1)
       ---------------------------------------------------------------
       Max CFL number:  0.18E+00 at (14,22,6)
       Max divergence:  0.24E+01 at (15,23,1)
       Min divergence: -0.27E-02 at (19,30,29)
       Max VN number:   0.25E-01 at (20,31,1)
       Total Heat Release Rate:             35.839 kW
       Radiation Loss to Boundaries:        -2.237 kW
 
       Time Step        5   June 23, 2025  16:02:24
       Step Size:    0.922E-01 s, Total Time:       0.46 s
       Pressure Iterations: 3
       Maximum Velocity Error:  0.35E-01 on Mesh 1 at (16,21,5)
       Maximum Pressure Error:  0.67E+02 on Mesh 1 at (15,23,1)
       ---------------------------------------------------------------
       Max CFL number:  0.33E+00 at (15,23,1)
       Max divergence:  0.64E+01 at (16,21,6)
       Min divergence: -0.60E-01 at (18,20,4)
       Max VN number:   0.75E-01 at (13,18,1)
       Total Heat Release Rate:             52.250 kW
       Radiation Loss to Boundaries:        -4.111 kW
 
       Time Step        6   June 23, 2025  16:02:24
       Step Size:    0.922E-01 s, Total Time:       0.55 s
       Pressure Iterations: 3
       Maximum Velocity Error:  0.49E-01 on Mesh 1 at (16,21,5)
       Maximum Pressure Error:  0.29E+03 on Mesh 1 at (16,21,6)
       ---------------------------------------------------------------
       Max CFL number:  0.79E+00 at (16,21,6)
       Max divergence:  0.30E+01 at (18,20,1)
       Min divergence: -0.22E+00 at (17,21,6)
       Max VN number:   0.25E+00 at (16,21,6)
       Total Heat Release Rate:             59.201 kW
       Radiation Loss to Boundaries:       -16.000 kW
 
       Time Step        7   June 23, 2025  16:02:24
       Step Size:    0.922E-01 s, Total Time:       0.65 s
       Pressure Iterations: 3
       Maximum Velocity Error:  0.24E-01 on Mesh 1 at (16,21,5)
       Maximum Pressure Error:  0.19E+03 on Mesh 1 at (18,20,1)
       ---------------------------------------------------------------
       Max CFL number:  0.69E+00 at (18,20,3)
       Max divergence:  0.34E+01 at (15,21,6)
       Min divergence: -0.56E-01 at (13,20,5)
       Max VN number:   0.99E-01 at (15,23,1)
       Total Heat Release Rate:             62.409 kW
       Radiation Loss to Boundaries:       -22.836 kW
 
       Time Step        8   June 23, 2025  16:02:24
       Step Size:    0.780E-01 s, Total Time:       0.72 s
       Pressure Iterations: 3
       Maximum Velocity Error:  0.29E-01 on Mesh 1 at (16,21,5)
       Maximum Pressure Error:  0.91E+02 on Mesh 1 at (18,20,1)
       ---------------------------------------------------------------
       Max CFL number:  0.85E+00 at (17,18,3)
       Max divergence:  0.28E+01 at (18,19,3)
       Min divergence: -0.31E+01 at (15,20,6)
       Max VN number:   0.11E+00 at (14,22,7)
       Total Heat Release Rate:             78.836 kW
       Radiation Loss to Boundaries:       -33.457 kW
 
       Time Step        9   June 23, 2025  16:02:24
       Step Size:    0.594E-01 s, Total Time:       0.78 s
       Pressure Iterations: 3
       Maximum Velocity Error:  0.24E-01 on Mesh 1 at (16,21,5)
       Maximum Pressure Error:  0.10E+03 on Mesh 1 at (15,20,6)
       ---------------------------------------------------------------
       Max CFL number:  0.84E+00 at (17,18,5)
       Max divergence:  0.22E+01 at (17,18,3)
       Min divergence: -0.43E-02 at (30,1,30)
       Max VN number:   0.17E+00 at (17,18,6)
       Total Heat Release Rate:             85.108 kW
       Radiation Loss to Boundaries:       -29.360 kW
 
       Time Step       10   June 23, 2025  16:02:24
       Step Size:    0.489E-01 s, Total Time:       0.83 s
       Pressure Iterations: 2
       Maximum Velocity Error:  0.28E-01 on Mesh 1 at (17,18,3)
       Maximum Pressure Error:  0.31E+02 on Mesh 1 at (18,21,3)
       ---------------------------------------------------------------
       Max CFL number:  0.87E+00 at (17,18,4)
       Max divergence:  0.28E+01 at (18,19,4)
       Min divergence: -0.74E-01 at (17,18,4)
       Max VN number:   0.24E+00 at (17,18,6)
       Total Heat Release Rate:             95.954 kW
       Radiation Loss to Boundaries:       -33.915 kW
 
       Time Step       20   June 23, 2025  16:02:25
       Step Size:    0.257E-01 s, Total Time:       1.16 s
       Pressure Iterations: 1
       Maximum Velocity Error:  0.29E-01 on Mesh 1 at (14,19,5)
       Maximum Pressure Error:  0.48E+02 on Mesh 1 at (15,22,6)
       ---------------------------------------------------------------
       Max CFL number:  0.96E+00 at (15,18,7)
       Max divergence:  0.22E+01 at (15,23,6)
       Min divergence: -0.54E+00 at (17,18,10)
       Max VN number:   0.33E+00 at (15,18,7)
       Total Heat Release Rate:            128.425 kW
       Radiation Loss to Boundaries:       -40.541 kW
 
       Time Step       30   June 23, 2025  16:02:26
       Step Size:    0.231E-01 s, Total Time:       1.39 s
       Pressure Iterations: 2
       Maximum Velocity Error:  0.21E-01 on Mesh 1 at (15,18,13)
       Maximum Pressure Error:  0.53E+02 on Mesh 1 at (15,20,11)
       ---------------------------------------------------------------
       Max CFL number:  0.94E+00 at (16,18,12)
       Max divergence:  0.21E+01 at (18,20,6)
       Min divergence: -0.86E+00 at (18,20,13)
       Max VN number:   0.31E+00 at (15,18,12)
       Total Heat Release Rate:            125.491 kW
       Radiation Loss to Boundaries:       -26.853 kW
 
       Time Step       40   June 23, 2025  16:02:27
       Step Size:    0.203E-01 s, Total Time:       1.60 s
       Pressure Iterations: 2
       Maximum Velocity Error:  0.21E-01 on Mesh 1 at (15,18,14)
       Maximum Pressure Error:  0.11E+03 on Mesh 1 at (16,21,14)
       ---------------------------------------------------------------
       Max CFL number:  0.97E+00 at (13,21,13)
       Max divergence:  0.19E+01 at (15,23,6)
       Min divergence: -0.12E+01 at (16,21,14)
       Max VN number:   0.69E+00 at (13,18,14)
       Total Heat Release Rate:            131.060 kW
       Radiation Loss to Boundaries:       -32.033 kW
 
       Time Step       50   June 23, 2025  16:02:28
       Step Size:    0.182E-01 s, Total Time:       1.79 s
       Pressure Iterations: 2
       Maximum Velocity Error:  0.17E-01 on Mesh 1 at (15,18,16)
       Maximum Pressure Error:  0.16E+03 on Mesh 1 at (16,21,18)
       ---------------------------------------------------------------
       Max CFL number:  0.97E+00 at (15,20,16)
       Max divergence:  0.24E+01 at (16,18,6)
       Min divergence: -0.15E+01 at (16,21,18)
       Max VN number:   0.59E+00 at (14,19,14)
       Total Heat Release Rate:            134.376 kW
       Radiation Loss to Boundaries:       -34.910 kW
 
       Time Step       60   June 23, 2025  16:02:29
       Step Size:    0.163E-01 s, Total Time:       1.95 s
       Pressure Iterations: 2
       Maximum Velocity Error:  0.16E-01 on Mesh 1 at (15,18,14)
       Maximum Pressure Error:  0.73E+02 on Mesh 1 at (16,21,22)
       ---------------------------------------------------------------
       Max CFL number:  0.92E+00 at (15,20,16)
       Max divergence:  0.23E+01 at (16,23,6)
       Min divergence: -0.16E+01 at (16,21,22)
       Max VN number:   0.49E+00 at (14,19,14)
       Total Heat Release Rate:            138.902 kW
       Radiation Loss to Boundaries:       -33.584 kW
 
       Time Step       70   June 23, 2025  16:02:30
       Step Size:    0.144E-01 s, Total Time:       2.11 s
       Pressure Iterations: 2
       Maximum Velocity Error:  0.16E-01 on Mesh 1 at (15,18,18)
       Maximum Pressure Error:  0.64E+02 on Mesh 1 at (16,20,23)
       ---------------------------------------------------------------
       Max CFL number:  0.87E+00 at (15,20,15)
       Max divergence:  0.24E+01 at (18,20,6)
       Min divergence: -0.12E+01 at (16,21,26)
       Max VN number:   0.44E+00 at (15,19,14)
       Total Heat Release Rate:            141.306 kW
       Radiation Loss to Boundaries:       -35.264 kW
 
       Time Step       80   June 23, 2025  16:02:31
       Step Size:    0.128E-01 s, Total Time:       2.24 s
       Pressure Iterations: 1
       Maximum Velocity Error:  0.36E-01 on Mesh 1 at (16,18,14)
       Maximum Pressure Error:  0.75E+02 on Mesh 1 at (16,20,26)
       ---------------------------------------------------------------
       Max CFL number:  0.82E+00 at (15,21,20)
       Max divergence:  0.25E+01 at (13,21,6)
       Min divergence: -0.13E+01 at (16,20,9)
       Max VN number:   0.20E+00 at (15,21,27)
       Total Heat Release Rate:            141.822 kW
       Radiation Loss to Boundaries:       -35.106 kW
 
       Time Step       90   June 23, 2025  16:02:32
       Step Size:    0.128E-01 s, Total Time:       2.37 s
       Pressure Iterations: 2
       Maximum Velocity Error:  0.10E-01 on Mesh 1 at (16,18,15)
       Maximum Pressure Error:  0.18E+03 on Mesh 1 at (16,17,30)
       ---------------------------------------------------------------
       Max CFL number:  0.90E+00 at (16,20,25)
       Max divergence:  0.26E+01 at (18,21,6)
       Min divergence: -0.11E+01 at (16,21,12)
       Max VN number:   0.29E+00 at (16,19,14)
       Total Heat Release Rate:            140.561 kW
       Radiation Loss to Boundaries:       -34.254 kW
 
       Time Step      100   June 23, 2025  16:02:33
       Step Size:    0.128E-01 s, Total Time:       2.50 s
       Pressure Iterations: 1
       Maximum Velocity Error:  0.46E-01 on Mesh 1 at (15,18,17)
       Maximum Pressure Error:  0.13E+03 on Mesh 1 at (15,20,30)
       ---------------------------------------------------------------
       Max CFL number:  0.81E+00 at (15,19,26)
       Max divergence:  0.26E+01 at (18,21,6)
       Min divergence: -0.94E+00 at (15,21,13)
       Max VN number:   0.43E+00 at (18,16,30)
       Total Heat Release Rate:            141.507 kW
       Radiation Loss to Boundaries:       -34.384 kW
 
       Time Step      200   June 23, 2025  16:02:42
       Step Size:    0.139E-01 s, Total Time:       3.86 s
       Pressure Iterations: 1
       Maximum Velocity Error:  0.30E-01 on Mesh 1 at (16,18,15)
       Maximum Pressure Error:  0.10E+03 on Mesh 1 at (16,22,30)
       ---------------------------------------------------------------
       Max CFL number:  0.84E+00 at (16,20,26)
       Max divergence:  0.25E+01 at (18,20,6)
       Min divergence: -0.11E+01 at (16,19,19)
       Max VN number:   0.47E+00 at (1,25,21)
       Total Heat Release Rate:            144.060 kW
       Radiation Loss to Boundaries:       -35.637 kW
 
       Time Step      300   June 23, 2025  16:02:52
       Step Size:    0.153E-01 s, Total Time:       5.27 s
       Pressure Iterations: 2
       Maximum Velocity Error:  0.78E-02 on Mesh 1 at (17,18,18)
       Maximum Pressure Error:  0.70E+02 on Mesh 1 at (14,19,27)
       ---------------------------------------------------------------
       Max CFL number:  0.89E+00 at (16,20,22)
       Max divergence:  0.25E+01 at (13,20,6)
       Min divergence: -0.10E+01 at (16,19,20)
       Max VN number:   0.56E+00 at (23,40,17)
       Total Heat Release Rate:            144.100 kW
       Radiation Loss to Boundaries:       -36.365 kW
 
       Time Step      400   June 23, 2025  16:03:01
       Step Size:    0.147E-01 s, Total Time:       6.75 s
       Pressure Iterations: 1
       Maximum Velocity Error:  0.46E-01 on Mesh 1 at (14,18,17)
       Maximum Pressure Error:  0.79E+02 on Mesh 1 at (14,19,23)
       ---------------------------------------------------------------
       Max CFL number:  0.81E+00 at (16,20,27)
       Max divergence:  0.27E+01 at (17,22,6)
       Min divergence: -0.14E+01 at (15,19,9)
       Max VN number:   0.58E+00 at (15,19,14)
       Total Heat Release Rate:            143.867 kW
       Radiation Loss to Boundaries:       -36.226 kW
 
       Time Step      500   June 23, 2025  16:03:11
       Step Size:    0.155E-01 s, Total Time:       8.23 s
       Pressure Iterations: 1
       Maximum Velocity Error:  0.26E-01 on Mesh 1 at (14,18,18)
       Maximum Pressure Error:  0.81E+02 on Mesh 1 at (14,20,30)
       ---------------------------------------------------------------
       Max CFL number:  0.89E+00 at (16,19,25)
       Max divergence:  0.24E+01 at (18,20,6)
       Min divergence: -0.17E+01 at (16,19,9)
       Max VN number:   0.43E+00 at (15,26,30)
       Total Heat Release Rate:            143.764 kW
       Radiation Loss to Boundaries:       -36.576 kW
 
       Time Step      600   June 23, 2025  16:03:20
       Step Size:    0.170E-01 s, Total Time:       9.80 s
       Pressure Iterations: 1
       Maximum Velocity Error:  0.35E-01 on Mesh 1 at (14,18,18)
       Maximum Pressure Error:  0.40E+02 on Mesh 1 at (16,13,30)
       ---------------------------------------------------------------
       Max CFL number:  0.93E+00 at (15,20,25)
       Max divergence:  0.24E+01 at (18,21,6)
       Min divergence: -0.13E+01 at (15,19,9)
       Max VN number:   0.56E+00 at (16,19,14)
       Total Heat Release Rate:            143.985 kW
       Radiation Loss to Boundaries:       -38.118 kW
 
       Time Step      700   June 23, 2025  16:03:29
       Step Size:    0.166E-01 s, Total Time:      11.45 s
       Pressure Iterations: 1
       Maximum Velocity Error:  0.21E-01 on Mesh 1 at (14,18,18)
       Maximum Pressure Error:  0.45E+02 on Mesh 1 at (19,20,30)
       ---------------------------------------------------------------
       Max CFL number:  0.81E+00 at (16,19,13)
       Max divergence:  0.31E+01 at (17,21,6)
       Min divergence: -0.12E+01 at (16,19,13)
       Max VN number:   0.59E+00 at (29,19,30)
       Total Heat Release Rate:            143.930 kW
       Radiation Loss to Boundaries:       -37.928 kW
 
       Time Step      800   June 23, 2025  16:03:39
       Step Size:    0.176E-01 s, Total Time:      13.15 s
       Pressure Iterations: 1
       Maximum Velocity Error:  0.24E-01 on Mesh 1 at (18,18,17)
       Maximum Pressure Error:  0.60E+02 on Mesh 1 at (15,20,30)
       ---------------------------------------------------------------
       Max CFL number:  0.83E+00 at (15,20,24)
       Max divergence:  0.24E+01 at (18,21,6)
       Min divergence: -0.12E+01 at (15,19,9)
       Max VN number:   0.74E+00 at (16,19,14)
       Total Heat Release Rate:            142.650 kW
       Radiation Loss to Boundaries:       -39.113 kW
 
       Time Step      900   June 23, 2025  16:03:48
       Step Size:    0.178E-01 s, Total Time:      14.83 s
       Pressure Iterations: 1
       Maximum Velocity Error:  0.31E-01 on Mesh 1 at (16,18,17)
       Maximum Pressure Error:  0.73E+02 on Mesh 1 at (17,19,30)
       ---------------------------------------------------------------
       Max CFL number:  0.90E+00 at (16,19,24)
       Max divergence:  0.22E+01 at (18,20,6)
       Min divergence: -0.94E+00 at (16,19,9)
       Max VN number:   0.63E+00 at (19,30,30)
       Total Heat Release Rate:            143.160 kW
       Radiation Loss to Boundaries:       -39.447 kW
 
       Time Step     1000   June 23, 2025  16:03:57
       Step Size:    0.174E-01 s, Total Time:      16.55 s
       Pressure Iterations: 1
       Maximum Velocity Error:  0.25E-01 on Mesh 1 at (18,18,15)
       Maximum Pressure Error:  0.10E+03 on Mesh 1 at (17,19,30)
       ---------------------------------------------------------------
       Max CFL number:  0.97E+00 at (16,20,23)
       Max divergence:  0.26E+01 at (18,19,6)
       Min divergence: -0.12E+01 at (16,19,8)
       Max VN number:   0.47E+00 at (17,34,30)
       Total Heat Release Rate:            143.238 kW
       Radiation Loss to Boundaries:       -40.466 kW
 
       Time Step     1100   June 23, 2025  16:04:07
       Step Size:    0.163E-01 s, Total Time:      18.18 s
       Pressure Iterations: 1
       Maximum Velocity Error:  0.46E-01 on Mesh 1 at (15,18,17)
       Maximum Pressure Error:  0.14E+03 on Mesh 1 at (15,19,30)
       ---------------------------------------------------------------
       Max CFL number:  0.83E+00 at (15,19,28)
       Max divergence:  0.25E+01 at (17,22,6)
       Min divergence: -0.12E+01 at (15,19,12)
       Max VN number:   0.47E+00 at (16,26,30)
       Total Heat Release Rate:            144.206 kW
       Radiation Loss to Boundaries:       -41.116 kW
 
       Time Step     1200   June 23, 2025  16:04:17
       Step Size:    0.153E-01 s, Total Time:      19.87 s
       Pressure Iterations: 1
       Maximum Velocity Error:  0.32E-01 on Mesh 1 at (15,18,14)
       Maximum Pressure Error:  0.63E+02 on Mesh 1 at (26,20,30)
       ---------------------------------------------------------------
       Max CFL number:  0.84E+00 at (15,19,28)
       Max divergence:  0.22E+01 at (16,23,6)
       Min divergence: -0.94E+00 at (16,19,12)
       Max VN number:   0.54E+00 at (10,21,30)
       Total Heat Release Rate:            144.542 kW
       Radiation Loss to Boundaries:       -42.326 kW
 
       Time Step     1300   June 23, 2025  16:04:27
       Step Size:    0.175E-01 s, Total Time:      21.50 s
       Pressure Iterations: 2
       Maximum Velocity Error:  0.14E-01 on Mesh 1 at (16,18,16)
       Maximum Pressure Error:  0.55E+02 on Mesh 1 at (16,19,24)
       ---------------------------------------------------------------
       Max CFL number:  0.91E+00 at (15,20,26)
       Max divergence:  0.27E+01 at (13,19,4)
       Min divergence: -0.93E+00 at (16,19,19)
       Max VN number:   0.61E+00 at (28,4,30)
       Total Heat Release Rate:            143.915 kW
       Radiation Loss to Boundaries:       -42.800 kW
 
       Time Step     1400   June 23, 2025  16:04:37
       Step Size:    0.158E-01 s, Total Time:      23.21 s
       Pressure Iterations: 2
       Maximum Velocity Error:  0.97E-02 on Mesh 1 at (17,18,18)
       Maximum Pressure Error:  0.82E+02 on Mesh 1 at (15,23,30)
       ---------------------------------------------------------------
       Max CFL number:  0.86E+00 at (15,20,24)
       Max divergence:  0.26E+01 at (14,23,5)
       Min divergence: -0.13E+01 at (16,19,9)
       Max VN number:   0.48E+00 at (14,33,30)
       Total Heat Release Rate:            143.856 kW
       Radiation Loss to Boundaries:       -44.248 kW
 
       Time Step     1500   June 23, 2025  16:04:47
       Step Size:    0.169E-01 s, Total Time:      24.88 s
       Pressure Iterations: 2
       Maximum Velocity Error:  0.99E-02 on Mesh 1 at (18,18,18)
       Maximum Pressure Error:  0.68E+02 on Mesh 1 at (14,27,30)
       ---------------------------------------------------------------
       Max CFL number:  0.81E+00 at (15,20,26)
       Max divergence:  0.23E+01 at (18,21,6)
       Min divergence: -0.89E+00 at (16,19,13)
       Max VN number:   0.43E+00 at (7,36,30)
       Total Heat Release Rate:            142.778 kW
       Radiation Loss to Boundaries:       -45.187 kW
 
