
 Fire Dynamics Simulator

 Current Date     : November  3, 2025  17:52:55
 Revision         : FDS-6.9.1-0-g889da6a-release
 Revision Date    : Sun Apr 7 17:05:06 2024 -0400
 Compiler         : Intel(R) Fortran Intel(R) 64 Compiler Classic for applications running on Intel(R) 64, Version 2021.7.1 Build 20221019_000000
 Compilation Date : Apr 09, 2024 13:24:51

 Number of MPI Processes:  1

 MPI version: 3.1
 MPI library version: Intel(R) MPI Library 2021.6 for Linux* OS


 Job TITLE        : (Concatenated) Spruce cone calorimeter N2.
 Job ID string    : spruce_N2_50_cat


 Grid Dimensions, Mesh     1

   Cells in the X Direction             3
   Cells in the Y Direction             3
   Cells in the Z Direction             3
   Number of Grid Cells                27


 Physical Dimensions, Mesh     1

   Length (m)                       0.300
   Width  (m)                       0.300
   Height (m)                       0.300

 Grid Dimensions, Mesh     2

   Cells in the X Direction             3
   Cells in the Y Direction             3
   Cells in the Z Direction             3
   Number of Grid Cells                27


 Physical Dimensions, Mesh     2

   Length (m)                       0.300
   Width  (m)                       0.300
   Height (m)                       0.300

 Miscellaneous Parameters

   Total Number of Grid Cells          54
   Maximum Cell Aspect Ratio        1.000
   Initial Time Step (s)            0.500
   CFL Velocity Norm                    2
   Simulation Start Time (s)          0.0
   Simulation End Time (s)         1750.0
   Background Pressure (Pa)     101325.00
   Ambient Temperature (C)          27.00

   3D Cartesian
   VLES Calculation
   Eddy Viscosity Model:  Deardorff (C_DEARDORFF = 0.10)
   Surface INERT Eddy Viscosity Model:  WALE (C_WALE = 0.60)
   Surface SAMPLE Eddy Viscosity Model:  WALE (C_WALE = 0.60)
   Turbulent Prandtl Number:         0.50
   Turbulent Schmidt Number:         0.50


 Pressure solver information

   Solver:                            FFT
   Velocity tolerance (m/s):    5.000E-02
   Press eqn res tol (1/s^2):   2.000E+03
   Max pressure iterations:            10


 Background Stratification

      Z (m)     P_0 (Pa)    TMP_0 (C)
   ------------------------------------
        0.25    101322.22     27.00
        0.15    101323.33     27.00
        0.05    101324.44     27.00


 Mass Fraction Transformation Matrix to Convert Species Mixtures (Columns) to Primitive Species (Rows)

                         AIR       PYROLYZA  PRODUCTS  WATER VA  CARBON D
   NITROGEN              0.990355  0.000000  0.990346  0.000000  0.000000
   OXYGEN                0.000010  0.000000  0.000000  0.000000  0.000000
   CARBON MONOXIDE       0.000000  0.000000  0.000000  0.000000  0.000000
   SOOT                  0.000000  0.000000  0.000000  0.000000  0.000000
   HYDROGEN              0.000000  0.000000  0.000000  0.000000  0.000000
   HYDROGEN CYANIDE      0.000000  0.000000  0.000000  0.000000  0.000000
   WATER VAPOR           0.009046  0.000000  0.009051  1.000000  0.000000
   CARBON DIOXIDE        0.000590  0.000000  0.000603  0.000000  1.000000
   PYROLYZATE            0.000000  1.000000  0.000000  0.000000  0.000000


 Primitive Species Information

   NITROGEN
   Gas Species
   Molecular Weight (g/mol)                28.01340
   Ambient Density (kg/m^3)                1.137
           Enthalpy of Formation (J/kg)  0.000E+00

   OXYGEN
   Gas Species
   Molecular Weight (g/mol)                31.99880
   Ambient Density (kg/m^3)                1.299
           Enthalpy of Formation (J/kg)  0.000E+00

   CARBON MONOXIDE
   Gas Species
   Molecular Weight (g/mol)                28.01010
   Ambient Density (kg/m^3)                1.137
           Enthalpy of Formation (J/kg) -3.946E+06

   SOOT
   Gas Species
   Molecular Weight (g/mol)                12.01070
   Ambient Density (kg/m^3)                0.488
           Enthalpy of Formation (J/kg)  0.000E+00

   HYDROGEN
   Gas Species
   Molecular Weight (g/mol)                 2.01588
   Ambient Density (kg/m^3)                0.082
           Enthalpy of Formation (J/kg)  0.000E+00

   HYDROGEN CYANIDE
   Gas Species
   Molecular Weight (g/mol)                27.02534
   Ambient Density (kg/m^3)                1.097
           Enthalpy of Formation (J/kg)  4.924E+06

   WATER VAPOR
   Gas Species
   Molecular Weight (g/mol)                18.01528
   Ambient Density (kg/m^3)                0.731
           Enthalpy of Formation (J/kg) -1.342E+07

   CARBON DIOXIDE
   Gas Species
   Molecular Weight (g/mol)                44.00950
   Ambient Density (kg/m^3)                1.787
           Enthalpy of Formation (J/kg) -8.941E+06

   PYROLYZATE
   Gas Species
   Molecular Weight (g/mol)               162.14060
   Ambient Density (kg/m^3)                6.583
   Assumed Enthalpy of Formation (J/kg) -7.941E+06


 Tracked (Lumped) Species Information

   AIR
   Molecular Weight (g/mol)            27.87945
   Ambient Density (kg/m^3)            1.132
   Initial Mass Fraction               1.000
   Enthalpy of Formation (J/kg)     -1.267E+05

   Sub Species                    Mass Fraction     Mole Fraction
   NITROGEN                       9.903545E-01      9.856188E-01
   OXYGEN                         9.909540E-06      8.633839E-06
   WATER VAPOR                    9.045969E-03      1.399904E-02
   CARBON DIOXIDE                 5.896176E-04      3.735151E-04
 
     Viscosity (kg/m/s) Ambient,  300 K:  1.762E-05
                                  500 K:  2.503E-05
                                 1000 K:  3.944E-05
                                 1500 K:  5.137E-05
                                 2000 K:  6.195E-05
   Therm. Cond. (W/m/K) Ambient,  300 K:  2.584E-02
                                  500 K:  3.732E-02
                                 1000 K:  6.510E-02
                                 1500 K:  9.050E-02
                                 2000 K:  1.128E-01
        Enthalpy (J/kg) Ambient,  300 K: -1.246E+05
                                  500 K:  8.585E+04
                                 1000 K:  6.456E+05
                                 1500 K:  1.256E+06
                                 2000 K:  1.896E+06
    Spec. Heat (J/kg/K) Ambient,  300 K:  1.047E+03
                                  500 K:  1.064E+03
                                 1000 K:  1.177E+03
                                 1500 K:  1.256E+03
                                 2000 K:  1.298E+03
   Diff. Coeff. (m^2/s) Ambient,  300 K:  2.070E-05
                                  500 K:  4.946E-05
                                 1000 K:  1.574E-04
                                 1500 K:  3.082E-04
                                 2000 K:  4.964E-04
 Gibbs Energy Amb. (kJ/mol),  300 K: -5.990E+01
                                  500 K: -9.988E+01
                                 1000 K: -2.091E+02
                                 1500 K: -3.269E+02
                                 2000 K: -4.506E+02

   PYROLYZATE
   Molecular Weight (g/mol)           162.14060
   Ambient Density (kg/m^3)            6.583
   Initial Mass Fraction               0.000
   Enthalpy of Formation (J/kg)     -7.941E+06

   Sub Species                    Mass Fraction     Mole Fraction
   PYROLYZATE                     1.000000E+00      1.000000E+00
 
     Viscosity (kg/m/s) Ambient,  300 K:  4.257E-05
                                  500 K:  6.043E-05
                                 1000 K:  9.499E-05
                                 1500 K:  1.236E-04
                                 2000 K:  1.489E-04
   Therm. Cond. (W/m/K) Ambient,  300 K:  1.076E-02
                                  500 K:  1.528E-02
                                 1000 K:  2.401E-02
                                 1500 K:  3.124E-02
                                 2000 K:  3.765E-02
        Enthalpy (J/kg) Ambient,  300 K: -7.941E+06
                                  500 K: -7.905E+06
                                 1000 K: -7.816E+06
                                 1500 K: -7.726E+06
                                 2000 K: -7.636E+06
    Spec. Heat (J/kg/K) Ambient,  300 K:  1.795E+02
                                  500 K:  1.795E+02
                                 1000 K:  1.795E+02
                                 1500 K:  1.795E+02
                                 2000 K:  1.795E+02
   Diff. Coeff. (m^2/s) Ambient,  300 K:  1.584E-05
                                  500 K:  3.779E-05
                                 1000 K:  1.201E-04
                                 1500 K:  2.351E-04
                                 2000 K:  3.786E-04

   PRODUCTS
   Molecular Weight (g/mol)            27.87947
   Ambient Density (kg/m^3)            1.132
   Initial Mass Fraction               0.000
   Enthalpy of Formation (J/kg)     -1.269E+05

   Sub Species                    Mass Fraction     Mole Fraction
   NITROGEN                       9.903460E-01      9.856114E-01
   CARBON MONOXIDE                0.000000E+00      0.000000E+00
   SOOT                           8.561298E-08      1.987265E-07
   HYDROGEN CYANIDE               0.000000E+00      0.000000E+00
   WATER VAPOR                    9.050648E-03      1.400629E-02
   CARBON DIOXIDE                 6.032416E-04      3.821461E-04
 
     Viscosity (kg/m/s) Ambient,  300 K:  1.762E-05
                                  500 K:  2.503E-05
                                 1000 K:  3.944E-05
                                 1500 K:  5.137E-05
                                 2000 K:  6.195E-05
   Therm. Cond. (W/m/K) Ambient,  300 K:  2.584E-02
                                  500 K:  3.732E-02
                                 1000 K:  6.510E-02
                                 1500 K:  9.050E-02
                                 2000 K:  1.128E-01
        Enthalpy (J/kg) Ambient,  300 K: -1.248E+05
                                  500 K:  8.567E+04
                                 1000 K:  6.454E+05
                                 1500 K:  1.256E+06
                                 2000 K:  1.896E+06
    Spec. Heat (J/kg/K) Ambient,  300 K:  1.047E+03
                                  500 K:  1.064E+03
                                 1000 K:  1.177E+03
                                 1500 K:  1.256E+03
                                 2000 K:  1.298E+03
   Diff. Coeff. (m^2/s) Ambient,  300 K:  2.070E-05
                                  500 K:  4.946E-05
                                 1000 K:  1.574E-04
                                 1500 K:  3.082E-04
                                 2000 K:  4.964E-04
 Gibbs Energy Amb. (kJ/mol),  300 K: -5.991E+01
                                  500 K: -9.988E+01
                                 1000 K: -2.092E+02
                                 1500 K: -3.269E+02
                                 2000 K: -4.506E+02

   WATER VAPOR
   Molecular Weight (g/mol)            18.01528
   Ambient Density (kg/m^3)            0.731
   Initial Mass Fraction               0.000
   Enthalpy of Formation (J/kg)     -1.342E+07

   Sub Species                    Mass Fraction     Mole Fraction
   WATER VAPOR                    1.000000E+00      1.000000E+00
 
     Viscosity (kg/m/s) Ambient,  300 K:  1.076E-05
                                  500 K:  1.770E-05
                                 1000 K:  3.583E-05
                                 1500 K:  5.206E-05
                                 2000 K:  6.615E-05
   Therm. Cond. (W/m/K) Ambient,  300 K:  2.006E-02
                                  500 K:  3.460E-02
                                 1000 K:  8.212E-02
                                 1500 K:  1.367E-01
                                 2000 K:  1.900E-01
        Enthalpy (J/kg) Ambient,  300 K: -1.342E+07
                                  500 K: -1.304E+07
                                 1000 K: -1.198E+07
                                 1500 K: -1.075E+07
                                 2000 K: -9.369E+06
    Spec. Heat (J/kg/K) Ambient,  300 K:  1.865E+03
                                  500 K:  1.955E+03
                                 1000 K:  2.292E+03
                                 1500 K:  2.627E+03
                                 2000 K:  2.873E+03
   Diff. Coeff. (m^2/s) Ambient,  300 K:  2.194E-05
                                  500 K:  5.775E-05
                                 1000 K:  1.976E-04
                                 1500 K:  3.947E-04
                                 2000 K:  6.404E-04
 Gibbs Energy Amb. (kJ/mol),  300 K: -2.985E+02
                                  500 K: -3.382E+02
                                 1000 K: -4.486E+02
                                 1500 K: -5.696E+02
                                 2000 K: -6.986E+02

   CARBON DIOXIDE
   Molecular Weight (g/mol)            44.00950
   Ambient Density (kg/m^3)            1.787
   Initial Mass Fraction               0.000
   Enthalpy of Formation (J/kg)     -8.941E+06

   Sub Species                    Mass Fraction     Mole Fraction
   CARBON DIOXIDE                 1.000000E+00      1.000000E+00
 
     Viscosity (kg/m/s) Ambient,  300 K:  1.518E-05
                                  500 K:  2.346E-05
                                 1000 K:  3.915E-05
                                 1500 K:  5.140E-05
                                 2000 K:  6.203E-05
   Therm. Cond. (W/m/K) Ambient,  300 K:  1.712E-02
                                  500 K:  3.172E-02
                                 1000 K:  6.441E-02
                                 1500 K:  9.091E-02
                                 2000 K:  1.134E-01
        Enthalpy (J/kg) Ambient,  300 K: -8.940E+06
                                  500 K: -8.753E+06
                                 1000 K: -8.183E+06
                                 1500 K: -7.539E+06
                                 2000 K: -6.864E+06
    Spec. Heat (J/kg/K) Ambient,  300 K:  8.457E+02
                                  500 K:  1.014E+03
                                 1000 K:  1.234E+03
                                 1500 K:  1.326E+03
                                 2000 K:  1.371E+03
   Diff. Coeff. (m^2/s) Ambient,  300 K:  1.585E-05
                                  500 K:  3.885E-05
                                 1000 K:  1.258E-04
                                 1500 K:  2.472E-04
                                 2000 K:  3.983E-04
 Gibbs Energy Amb. (kJ/mol),  300 K: -4.576E+02
                                  500 K: -5.026E+02
                                 1000 K: -6.294E+02
                                 1500 K: -7.701E+02
                                 2000 K: -9.206E+02


 Gas Phase Reaction Information

      Fuel                                           Heat of Combustion (kJ/kg)
      PYROLYZATE                                                     13750.0000
      EPUMO2:                                                        11879.3459

      Primitive Species Stoich. Coeff.
      Species ID                                                          Molar
      NITROGEN                                                        -0.000000
      OXYGEN                                                          -5.865003
      SOOT                                                             0.134997
      WATER VAPOR                                                      5.000000
      CARBON DIOXIDE                                                   5.865003
      PYROLYZATE                                                      -1.000000

      Tracked (Lumped) Species Stoich. Coeff.
      Species ID                                             Molar         Mass
      AIR                                             -679304.2181 -116803.7165
      PYROLYZATE                                         -1.000000    -1.000000
      PRODUCTS                                         679309.3531  116804.7165

      Reaction Kinetics

      Fast chemistry

      ODE Solver:  EXPLICIT EULER

      Extinction Model:  EXTINCTION 1
      Auto-Ignition Temperature (C):            -273.1
      Critical Flame Temperature (C):           1427.0

      Prescribed Radiative Fraction:             0.000


 Material Information

   1 SPRUCE
     Emissivity:                                  0.900
     Density (kg/m3):                             408.0
     Specific Heat (kJ/kg/K) Ambient,  300 K:  9.200E-01
                                       350 K:  1.126E+00
                                       500 K:  1.786E+00
                                       800 K:  3.106E+00
     Therm. Cond. (W/m/K) Ambient,     300 K:  6.417E-02
                                       350 K:  8.007E-02
                                       500 K:  1.278E-01
                                       800 K:  1.510E-01
     Enthalpy (kJ/kg) Ambient,         300 K: -2.498E+03
                                       350 K: -2.447E+03
                                       500 K: -2.228E+03
                                       800 K: -1.494E+03
     Reaction  1
        Residue Yields:
        CHAR                                                        :  0.150
        Gaseous Yields:
        AIR                                                         :  0.000
        PYROLYZATE                                                  :  0.850
        PRODUCTS                                                    :  0.000
        WATER VAPOR                                                 :  0.000
        CARBON DIOXIDE                                              :  0.000
        A (1/s):                      2.120E+11
        E (J/mol):                    1.910E+05
        H_R (kJ/kg) TMP_REF,  624 K:  1.128E+02
                              584 K:  1.879E+02
                              664 K:  3.092E+01
        N_S:                              1.89
        N_T:                              0.00

   2 CHAR
     Emissivity:                                  0.840
     Density (kg/m3):                              52.5
     Specific Heat (kJ/kg/K) Ambient,  300 K:  7.209E-01
                                       350 K:  9.556E-01
                                       500 K:  1.314E+00
                                       800 K:  1.599E+00
     Therm. Cond. (W/m/K) Ambient,     300 K:  1.156E-01
                                       350 K:  1.197E-01
                                       500 K:  1.320E-01
                                       800 K:  1.566E-01
     Enthalpy (kJ/kg) Ambient,         300 K:  3.188E+04
                                       350 K:  3.192E+04
                                       500 K:  3.210E+04
                                       800 K:  3.254E+04
     Reaction  1
        Residue Yields:
        Gaseous Yields:
        AIR                                                         : ******
        PYROLYZATE                                                  :  0.000
        PRODUCTS                                                    : 12.585
        WATER VAPOR                                                 :  0.000
        CARBON DIOXIDE                                              :  0.000
        A (1/s):                      3.750E+00
        E (J/mol):                    2.768E+04
        H_R (kJ/kg) TMP_REF,  426 K: -3.200E+04
                              386 K: -3.200E+04
                              466 K: -3.201E+04
        N_S:                              1.00
        N_T:                              0.00
        N_O2       :     0.68
        Gas diffusion depth (m):   0.0001

   3 MOISTURE
     Emissivity:                                  0.900
     Density (kg/m3):                            1000.0
     Specific Heat (kJ/kg/K) Ambient,  300 K:  4.200E+00
                                       350 K:  4.200E+00
                                       500 K:  4.200E+00
                                       800 K:  4.200E+00
     Therm. Cond. (W/m/K) Ambient,     300 K:  6.000E-01
                                       350 K:  6.000E-01
                                       500 K:  6.000E-01
                                       800 K:  6.000E-01
     Enthalpy (kJ/kg) Ambient,         300 K: -1.620E+04
                                       350 K: -1.599E+04
                                       500 K: -1.536E+04
                                       800 K: -1.410E+04
     Reaction  1
        Residue Yields:
        Gaseous Yields:
        AIR                                                         :  0.000
        PYROLYZATE                                                  :  0.000
        PRODUCTS                                                    :  0.000
        WATER VAPOR                                                 :  1.000
        CARBON DIOXIDE                                              :  0.000
        A (1/s):                      8.370E+12
        E (J/mol):                    1.210E+05
        H_R (kJ/kg) TMP_REF,  419 K:  2.500E+03
                              379 K:  2.592E+03
                              459 K:  2.409E+03
        N_S:                              1.00
        N_T:                              0.00

   4 CERAMIC
     Emissivity:                                  0.900
     Density (kg/m3):                             128.0
     Specific Heat (kJ/kg/K) Ambient,  300 K:  1.130E+00
                                       350 K:  1.130E+00
                                       500 K:  1.130E+00
                                       800 K:  1.130E+00
     Therm. Cond. (W/m/K) Ambient,     300 K:  4.038E-02
                                       350 K:  4.316E-02
                                       500 K:  5.402E-02
                                       800 K:  1.054E-01
     Enthalpy (kJ/kg) Ambient,         300 K:  3.390E+02
                                       350 K:  3.955E+02
                                       500 K:  5.650E+02
                                       800 K:  9.040E+02


 Surface Conditions

   0 INERT (DEFAULT)

   1 SAMPLE
     Material List
          1  MOISTURE
          2  SPRUCE
          3  CERAMIC
          4  CHAR
     Layer  1
        Thickness   (m):  0.02000
        Density (kg/m3):   430.96
        MOISTURE, Mass fraction:    0.09
        SPRUCE, Mass fraction:    0.91
     Layer  2
        Thickness   (m):  0.01300
        Density (kg/m3):   128.00
        CERAMIC, Mass fraction:    1.00
     Reaction products considered from the first -1.00 layers.
     Total surface density    10.283 kg/m2
     Solid Phase Node, Layer, Coordinates(m):
                    0      1       0.0000000
                    1      1       0.0003442
                    2      1       0.0007572
                    3      1       0.0012528
                    4      1       0.0018476
                    5      1       0.0025613
                    6      1       0.0034177
                    7      1       0.0044454
                    8      1       0.0056787
                    9      1       0.0071586
                   10      1       0.0089345
                   11      1       0.0110655
                   12      1       0.0128414
                   13      1       0.0143213
                   14      1       0.0155546
                   15      1       0.0165823
                   16      1       0.0174387
                   17      1       0.0181524
                   18      1       0.0187472
                   19      1       0.0192428
                   20      1       0.0196558
                   21      1       0.0200000
                   22      2       0.0204333
                   23      2       0.0213000
                   24      2       0.0230333
                   25      2       0.0265000
                   26      2       0.0299667
                   27      2       0.0317000
                   28      2       0.0325667
                   29      2       0.0330000
     Exposed Backing

   2 OPEN
     Passive Vent to Atmosphere

   3 MIRROR
     Symmetry Plane

   4 INTERPOLATED

   5 PERIODIC

   6 HVAC

   7 MASSLESS TRACER

   8 DROPLET

   9 MASSLESS TARGET

  10 PERIODIC FLOW ONLY


 Lagrangian Particle Classes


 Cut-off Density and Temperature

    Minimum Temperature:  -259.1 C
    Maximum Temperature:  2726.8 C
    Minimum Density:  1.132E-01 kg/m3
    Maximum Density:  2.823E+02 kg/m3


 Device Information

   1 ID: HRRPUA
     QUANTITY: HRRPUV
     Coordinates (X,Y,Z):    0.000000E+00    0.000000E+00    1.500000E-01
     SPATIAL STATISTIC: VOLUME INTEGRAL
     TEMPORAL STATISTIC: TIME AVERAGE
   2 ID: MLRPUA
     QUANTITY: BURNING RATE
     Coordinates (X,Y,Z):    0.000000E+00    0.000000E+00    1.500000E-01
     SPATIAL STATISTIC: SURFACE INTEGRAL
     TEMPORAL STATISTIC: TIME AVERAGE


 Radiation Model Information

   Number of control angles  104
   Time step increment         3
   Angle increment             5
   Theta band N_phi   Solid angle
     1:        4     0.120
     2:       12     0.114
     3:       16     0.127
     4:       20     0.120
     5:       20     0.120
     6:       16     0.127
     7:       12     0.114
     8:        4     0.120
 
 

 Run Time Diagnostics

       Time Step        1   November  3, 2025  17:52:55
       Step Size:    0.500E+00 s, Total Time:       0.50 s
       Pressure Iterations: 1
       Maximum Velocity Error:  0.00E+00 on Mesh 1 at (0,0,0)
       Maximum Pressure Error:  0.00E+00 on Mesh 1 at (0,0,0)
       ---------------------------------------------------------------
       Mesh    1
       Max CFL number:  0.00E+00 at (0,0,0)
       Max divergence:  0.28E-16 at (3,2,1)
       Min divergence: -0.21E-16 at (2,2,1)
       Max VN number:   0.00E+00 at (0,0,0)
       Mesh    2
       Max CFL number:  0.00E+00 at (0,0,0)
       Max divergence:  0.28E-16 at (3,2,1)
       Min divergence: -0.21E-16 at (1,3,3)
       Max VN number:   0.00E+00 at (0,0,0)
 
       Time Step        2   November  3, 2025  17:52:55
       Step Size:    0.500E+00 s, Total Time:       1.00 s
       Pressure Iterations: 1
       Maximum Velocity Error:  0.00E+00 on Mesh 1 at (0,0,0)
       Maximum Pressure Error:  0.00E+00 on Mesh 1 at (0,0,0)
       ---------------------------------------------------------------
       Mesh    1
       Max CFL number:  0.00E+00 at (0,0,0)
       Max divergence:  0.28E-16 at (3,2,1)
       Min divergence: -0.21E-16 at (2,2,1)
       Max VN number:   0.00E+00 at (0,0,0)
       Mesh    2
       Max CFL number:  0.00E+00 at (0,0,0)
       Max divergence:  0.28E-16 at (3,2,1)
       Min divergence: -0.21E-16 at (1,3,3)
       Max VN number:   0.00E+00 at (0,0,0)
 
       Time Step        3   November  3, 2025  17:52:55
       Step Size:    0.500E+00 s, Total Time:       1.50 s
       Pressure Iterations: 1
       Maximum Velocity Error:  0.00E+00 on Mesh 1 at (0,0,0)
       Maximum Pressure Error:  0.00E+00 on Mesh 1 at (0,0,0)
       ---------------------------------------------------------------
       Mesh    1
       Max CFL number:  0.00E+00 at (0,0,0)
       Max divergence:  0.28E-16 at (3,2,1)
       Min divergence: -0.21E-16 at (2,2,1)
       Max VN number:   0.00E+00 at (0,0,0)
       Mesh    2
       Max CFL number:  0.00E+00 at (0,0,0)
       Max divergence:  0.28E-16 at (3,2,1)
       Min divergence: -0.21E-16 at (1,3,3)
       Max VN number:   0.00E+00 at (0,0,0)
 
       Time Step        4   November  3, 2025  17:52:55
       Step Size:    0.500E+00 s, Total Time:       2.00 s
       Pressure Iterations: 1
       Maximum Velocity Error:  0.00E+00 on Mesh 1 at (0,0,0)
       Maximum Pressure Error:  0.00E+00 on Mesh 1 at (0,0,0)
       ---------------------------------------------------------------
       Mesh    1
       Max CFL number:  0.00E+00 at (0,0,0)
       Max divergence:  0.28E-16 at (3,2,1)
       Min divergence: -0.21E-16 at (2,2,1)
       Max VN number:   0.00E+00 at (0,0,0)
       Mesh    2
       Max CFL number:  0.00E+00 at (0,0,0)
       Max divergence:  0.28E-16 at (3,2,1)
       Min divergence: -0.21E-16 at (1,3,3)
       Max VN number:   0.00E+00 at (0,0,0)
 
       Time Step        5   November  3, 2025  17:52:55
       Step Size:    0.500E+00 s, Total Time:       2.50 s
       Pressure Iterations: 1
       Maximum Velocity Error:  0.00E+00 on Mesh 1 at (0,0,0)
       Maximum Pressure Error:  0.00E+00 on Mesh 1 at (0,0,0)
       ---------------------------------------------------------------
       Mesh    1
       Max CFL number:  0.00E+00 at (0,0,0)
       Max divergence:  0.28E-16 at (3,2,1)
       Min divergence: -0.21E-16 at (2,2,1)
       Max VN number:   0.00E+00 at (0,0,0)
       Mesh    2
       Max CFL number:  0.00E+00 at (0,0,0)
       Max divergence:  0.28E-16 at (3,2,1)
       Min divergence: -0.21E-16 at (1,3,3)
       Max VN number:   0.00E+00 at (0,0,0)
 
       Time Step        6   November  3, 2025  17:52:55
       Step Size:    0.500E+00 s, Total Time:       3.00 s
       Pressure Iterations: 1
       Maximum Velocity Error:  0.00E+00 on Mesh 1 at (0,0,0)
       Maximum Pressure Error:  0.00E+00 on Mesh 1 at (0,0,0)
       ---------------------------------------------------------------
       Mesh    1
       Max CFL number:  0.00E+00 at (0,0,0)
       Max divergence:  0.28E-16 at (3,2,1)
       Min divergence: -0.21E-16 at (2,2,1)
       Max VN number:   0.00E+00 at (0,0,0)
       Mesh    2
       Max CFL number:  0.00E+00 at (0,0,0)
       Max divergence:  0.28E-16 at (3,2,1)
       Min divergence: -0.21E-16 at (1,3,3)
       Max VN number:   0.00E+00 at (0,0,0)
 
       Time Step        7   November  3, 2025  17:52:55
       Step Size:    0.500E+00 s, Total Time:       3.50 s
       Pressure Iterations: 1
       Maximum Velocity Error:  0.00E+00 on Mesh 1 at (0,0,0)
       Maximum Pressure Error:  0.00E+00 on Mesh 1 at (0,0,0)
       ---------------------------------------------------------------
       Mesh    1
       Max CFL number:  0.00E+00 at (0,0,0)
       Max divergence:  0.28E-16 at (3,2,1)
       Min divergence: -0.21E-16 at (2,2,1)
       Max VN number:   0.00E+00 at (0,0,0)
       Mesh    2
       Max CFL number:  0.00E+00 at (0,0,0)
       Max divergence:  0.28E-16 at (3,2,1)
       Min divergence: -0.21E-16 at (1,3,3)
       Max VN number:   0.00E+00 at (0,0,0)
 
       Time Step        8   November  3, 2025  17:52:55
       Step Size:    0.500E+00 s, Total Time:       4.00 s
       Pressure Iterations: 1
       Maximum Velocity Error:  0.00E+00 on Mesh 1 at (0,0,0)
       Maximum Pressure Error:  0.00E+00 on Mesh 1 at (0,0,0)
       ---------------------------------------------------------------
       Mesh    1
       Max CFL number:  0.00E+00 at (0,0,0)
       Max divergence:  0.28E-16 at (3,2,1)
       Min divergence: -0.21E-16 at (2,2,1)
       Max VN number:   0.00E+00 at (0,0,0)
       Mesh    2
       Max CFL number:  0.00E+00 at (0,0,0)
       Max divergence:  0.28E-16 at (3,2,1)
       Min divergence: -0.21E-16 at (1,3,3)
       Max VN number:   0.00E+00 at (0,0,0)
 
       Time Step        9   November  3, 2025  17:52:55
       Step Size:    0.500E+00 s, Total Time:       4.50 s
       Pressure Iterations: 1
       Maximum Velocity Error:  0.00E+00 on Mesh 1 at (0,0,0)
       Maximum Pressure Error:  0.00E+00 on Mesh 1 at (0,0,0)
       ---------------------------------------------------------------
       Mesh    1
       Max CFL number:  0.00E+00 at (0,0,0)
       Max divergence:  0.28E-16 at (3,2,1)
       Min divergence: -0.21E-16 at (2,2,1)
       Max VN number:   0.00E+00 at (0,0,0)
       Mesh    2
       Max CFL number:  0.00E+00 at (0,0,0)
       Max divergence:  0.28E-16 at (3,2,1)
       Min divergence: -0.21E-16 at (1,3,3)
       Max VN number:   0.00E+00 at (0,0,0)
 
       Time Step       10   November  3, 2025  17:52:55
       Step Size:    0.500E+00 s, Total Time:       5.00 s
       Pressure Iterations: 1
       Maximum Velocity Error:  0.00E+00 on Mesh 1 at (0,0,0)
       Maximum Pressure Error:  0.00E+00 on Mesh 1 at (0,0,0)
       ---------------------------------------------------------------
       Mesh    1
       Max CFL number:  0.00E+00 at (0,0,0)
       Max divergence:  0.28E-16 at (3,2,1)
       Min divergence: -0.21E-16 at (2,2,1)
       Max VN number:   0.00E+00 at (0,0,0)
       Mesh    2
       Max CFL number:  0.00E+00 at (0,0,0)
       Max divergence:  0.28E-16 at (3,2,1)
       Min divergence: -0.21E-16 at (1,3,3)
       Max VN number:   0.00E+00 at (0,0,0)
 
       Time Step       20   November  3, 2025  17:52:55
       Step Size:    0.500E+00 s, Total Time:      10.00 s
       Pressure Iterations: 1
       Maximum Velocity Error:  0.00E+00 on Mesh 1 at (0,0,0)
       Maximum Pressure Error:  0.00E+00 on Mesh 1 at (0,0,0)
       ---------------------------------------------------------------
       Mesh    1
       Max CFL number:  0.00E+00 at (0,0,0)
       Max divergence:  0.28E-16 at (3,2,1)
       Min divergence: -0.21E-16 at (2,2,1)
       Max VN number:   0.00E+00 at (0,0,0)
       Mesh    2
       Max CFL number:  0.00E+00 at (0,0,0)
       Max divergence:  0.28E-16 at (3,2,1)
       Min divergence: -0.21E-16 at (1,3,3)
       Max VN number:   0.00E+00 at (0,0,0)
 
       Time Step       30   November  3, 2025  17:52:55
       Step Size:    0.500E+00 s, Total Time:      15.00 s
       Pressure Iterations: 1
       Maximum Velocity Error:  0.00E+00 on Mesh 1 at (0,0,0)
       Maximum Pressure Error:  0.00E+00 on Mesh 1 at (0,0,0)
       ---------------------------------------------------------------
       Mesh    1
       Max CFL number:  0.00E+00 at (0,0,0)
       Max divergence:  0.28E-16 at (3,2,1)
       Min divergence: -0.21E-16 at (2,2,1)
       Max VN number:   0.00E+00 at (0,0,0)
       Mesh    2
       Max CFL number:  0.00E+00 at (0,0,0)
       Max divergence:  0.28E-16 at (3,2,1)
       Min divergence: -0.21E-16 at (1,3,3)
       Max VN number:   0.00E+00 at (0,0,0)
 
       Time Step       40   November  3, 2025  17:52:55
       Step Size:    0.500E+00 s, Total Time:      20.00 s
       Pressure Iterations: 1
       Maximum Velocity Error:  0.00E+00 on Mesh 1 at (0,0,0)
       Maximum Pressure Error:  0.00E+00 on Mesh 1 at (0,0,0)
       ---------------------------------------------------------------
       Mesh    1
       Max CFL number:  0.00E+00 at (0,0,0)
       Max divergence:  0.28E-16 at (3,2,1)
       Min divergence: -0.21E-16 at (2,2,1)
       Max VN number:   0.00E+00 at (0,0,0)
       Mesh    2
       Max CFL number:  0.00E+00 at (0,0,0)
       Max divergence:  0.28E-16 at (3,2,1)
       Min divergence: -0.21E-16 at (1,3,3)
       Max VN number:   0.00E+00 at (0,0,0)
 
       Time Step       50   November  3, 2025  17:52:55
       Step Size:    0.500E+00 s, Total Time:      25.00 s
       Pressure Iterations: 1
       Maximum Velocity Error:  0.00E+00 on Mesh 1 at (0,0,0)
       Maximum Pressure Error:  0.00E+00 on Mesh 1 at (0,0,0)
       ---------------------------------------------------------------
       Mesh    1
       Max CFL number:  0.00E+00 at (0,0,0)
       Max divergence:  0.28E-16 at (3,2,1)
       Min divergence: -0.21E-16 at (2,2,1)
       Max VN number:   0.00E+00 at (0,0,0)
       Mesh    2
       Max CFL number:  0.00E+00 at (0,0,0)
       Max divergence:  0.28E-16 at (3,2,1)
       Min divergence: -0.21E-16 at (1,3,3)
       Max VN number:   0.00E+00 at (0,0,0)
 
       Time Step       60   November  3, 2025  17:52:55
       Step Size:    0.500E+00 s, Total Time:      30.00 s
       Pressure Iterations: 1
       Maximum Velocity Error:  0.00E+00 on Mesh 1 at (0,0,0)
       Maximum Pressure Error:  0.00E+00 on Mesh 1 at (0,0,0)
       ---------------------------------------------------------------
       Mesh    1
       Max CFL number:  0.00E+00 at (0,0,0)
       Max divergence:  0.28E-16 at (3,2,1)
       Min divergence: -0.21E-16 at (2,2,1)
       Max VN number:   0.00E+00 at (0,0,0)
       Mesh    2
       Max CFL number:  0.00E+00 at (0,0,0)
       Max divergence:  0.28E-16 at (3,2,1)
       Min divergence: -0.21E-16 at (1,3,3)
       Max VN number:   0.00E+00 at (0,0,0)
 
       Time Step       70   November  3, 2025  17:52:55
       Step Size:    0.500E+00 s, Total Time:      35.00 s
       Pressure Iterations: 1
       Maximum Velocity Error:  0.00E+00 on Mesh 1 at (0,0,0)
       Maximum Pressure Error:  0.00E+00 on Mesh 1 at (0,0,0)
       ---------------------------------------------------------------
       Mesh    1
       Max CFL number:  0.00E+00 at (0,0,0)
       Max divergence:  0.28E-16 at (3,2,1)
       Min divergence: -0.21E-16 at (2,2,1)
       Max VN number:   0.00E+00 at (0,0,0)
       Mesh    2
       Max CFL number:  0.00E+00 at (0,0,0)
       Max divergence:  0.28E-16 at (3,2,1)
       Min divergence: -0.21E-16 at (1,3,3)
       Max VN number:   0.00E+00 at (0,0,0)
 
       Time Step       80   November  3, 2025  17:52:55
       Step Size:    0.500E+00 s, Total Time:      40.00 s
       Pressure Iterations: 1
       Maximum Velocity Error:  0.00E+00 on Mesh 1 at (0,0,0)
       Maximum Pressure Error:  0.00E+00 on Mesh 1 at (0,0,0)
       ---------------------------------------------------------------
       Mesh    1
       Max CFL number:  0.00E+00 at (0,0,0)
       Max divergence:  0.28E-16 at (3,2,1)
       Min divergence: -0.21E-16 at (2,2,1)
       Max VN number:   0.00E+00 at (0,0,0)
       Mesh    2
       Max CFL number:  0.00E+00 at (0,0,0)
       Max divergence:  0.28E-16 at (3,2,1)
       Min divergence: -0.21E-16 at (1,3,3)
       Max VN number:   0.00E+00 at (0,0,0)
 
       Time Step       90   November  3, 2025  17:52:55
       Step Size:    0.500E+00 s, Total Time:      45.00 s
       Pressure Iterations: 1
       Maximum Velocity Error:  0.00E+00 on Mesh 1 at (0,0,0)
       Maximum Pressure Error:  0.00E+00 on Mesh 1 at (0,0,0)
       ---------------------------------------------------------------
       Mesh    1
       Max CFL number:  0.00E+00 at (0,0,0)
       Max divergence:  0.28E-16 at (3,2,1)
       Min divergence: -0.21E-16 at (2,2,1)
       Max VN number:   0.00E+00 at (0,0,0)
       Mesh    2
       Max CFL number:  0.00E+00 at (0,0,0)
       Max divergence:  0.28E-16 at (3,2,1)
       Min divergence: -0.21E-16 at (1,3,3)
       Max VN number:   0.00E+00 at (0,0,0)
 
       Time Step      100   November  3, 2025  17:52:55
       Step Size:    0.500E+00 s, Total Time:      50.00 s
       Pressure Iterations: 1
       Maximum Velocity Error:  0.00E+00 on Mesh 1 at (0,0,0)
       Maximum Pressure Error:  0.00E+00 on Mesh 1 at (0,0,0)
       ---------------------------------------------------------------
       Mesh    1
       Max CFL number:  0.00E+00 at (0,0,0)
       Max divergence:  0.28E-16 at (3,2,1)
       Min divergence: -0.21E-16 at (2,2,1)
       Max VN number:   0.00E+00 at (0,0,0)
       Mesh    2
       Max CFL number:  0.00E+00 at (0,0,0)
       Max divergence:  0.28E-16 at (3,2,1)
       Min divergence: -0.21E-16 at (1,3,3)
       Max VN number:   0.00E+00 at (0,0,0)
 
       Time Step      200   November  3, 2025  17:52:55
       Step Size:    0.500E+00 s, Total Time:     100.00 s
       Pressure Iterations: 1
       Maximum Velocity Error:  0.00E+00 on Mesh 1 at (0,0,0)
       Maximum Pressure Error:  0.00E+00 on Mesh 1 at (0,0,0)
       ---------------------------------------------------------------
       Mesh    1
       Max CFL number:  0.00E+00 at (0,0,0)
       Max divergence:  0.28E-16 at (3,2,1)
       Min divergence: -0.21E-16 at (2,2,1)
       Max VN number:   0.00E+00 at (0,0,0)
       Mesh    2
       Max CFL number:  0.00E+00 at (0,0,0)
       Max divergence:  0.28E-16 at (3,2,1)
       Min divergence: -0.21E-16 at (1,3,3)
       Max VN number:   0.00E+00 at (0,0,0)
 
       Time Step      300   November  3, 2025  17:52:55
       Step Size:    0.500E+00 s, Total Time:     150.00 s
       Pressure Iterations: 1
       Maximum Velocity Error:  0.00E+00 on Mesh 1 at (0,0,0)
       Maximum Pressure Error:  0.00E+00 on Mesh 1 at (0,0,0)
       ---------------------------------------------------------------
       Mesh    1
       Max CFL number:  0.00E+00 at (0,0,0)
       Max divergence:  0.28E-16 at (3,2,1)
       Min divergence: -0.21E-16 at (2,2,1)
       Max VN number:   0.00E+00 at (0,0,0)
       Mesh    2
       Max CFL number:  0.00E+00 at (0,0,0)
       Max divergence:  0.28E-16 at (3,2,1)
       Min divergence: -0.21E-16 at (1,3,3)
       Max VN number:   0.00E+00 at (0,0,0)
 
       Time Step      400   November  3, 2025  17:52:55
       Step Size:    0.500E+00 s, Total Time:     200.00 s
       Pressure Iterations: 1
       Maximum Velocity Error:  0.00E+00 on Mesh 1 at (0,0,0)
       Maximum Pressure Error:  0.00E+00 on Mesh 1 at (0,0,0)
       ---------------------------------------------------------------
       Mesh    1
       Max CFL number:  0.00E+00 at (0,0,0)
       Max divergence:  0.28E-16 at (3,2,1)
       Min divergence: -0.21E-16 at (2,2,1)
       Max VN number:   0.00E+00 at (0,0,0)
       Mesh    2
       Max CFL number:  0.00E+00 at (0,0,0)
       Max divergence:  0.28E-16 at (3,2,1)
       Min divergence: -0.21E-16 at (1,3,3)
       Max VN number:   0.00E+00 at (0,0,0)
 
       Time Step      500   November  3, 2025  17:52:55
       Step Size:    0.500E+00 s, Total Time:     250.00 s
       Pressure Iterations: 1
       Maximum Velocity Error:  0.00E+00 on Mesh 1 at (0,0,0)
       Maximum Pressure Error:  0.00E+00 on Mesh 1 at (0,0,0)
       ---------------------------------------------------------------
       Mesh    1
       Max CFL number:  0.00E+00 at (0,0,0)
       Max divergence:  0.28E-16 at (3,2,1)
       Min divergence: -0.21E-16 at (2,2,1)
       Max VN number:   0.00E+00 at (0,0,0)
       Mesh    2
       Max CFL number:  0.00E+00 at (0,0,0)
       Max divergence:  0.28E-16 at (3,2,1)
       Min divergence: -0.21E-16 at (1,3,3)
       Max VN number:   0.00E+00 at (0,0,0)
 
       Time Step      600   November  3, 2025  17:52:55
       Step Size:    0.500E+00 s, Total Time:     300.00 s
       Pressure Iterations: 1
       Maximum Velocity Error:  0.00E+00 on Mesh 1 at (0,0,0)
       Maximum Pressure Error:  0.00E+00 on Mesh 1 at (0,0,0)
       ---------------------------------------------------------------
       Mesh    1
       Max CFL number:  0.00E+00 at (0,0,0)
       Max divergence:  0.28E-16 at (3,2,1)
       Min divergence: -0.21E-16 at (2,2,1)
       Max VN number:   0.00E+00 at (0,0,0)
       Mesh    2
       Max CFL number:  0.00E+00 at (0,0,0)
       Max divergence:  0.28E-16 at (3,2,1)
       Min divergence: -0.21E-16 at (1,3,3)
       Max VN number:   0.00E+00 at (0,0,0)
 
       Time Step      700   November  3, 2025  17:52:55
       Step Size:    0.500E+00 s, Total Time:     350.00 s
       Pressure Iterations: 1
       Maximum Velocity Error:  0.00E+00 on Mesh 1 at (0,0,0)
       Maximum Pressure Error:  0.00E+00 on Mesh 1 at (0,0,0)
       ---------------------------------------------------------------
       Mesh    1
       Max CFL number:  0.00E+00 at (0,0,0)
       Max divergence:  0.28E-16 at (3,2,1)
       Min divergence: -0.21E-16 at (2,2,1)
       Max VN number:   0.00E+00 at (0,0,0)
       Mesh    2
       Max CFL number:  0.00E+00 at (0,0,0)
       Max divergence:  0.28E-16 at (3,2,1)
       Min divergence: -0.21E-16 at (1,3,3)
       Max VN number:   0.00E+00 at (0,0,0)
 
       Time Step      800   November  3, 2025  17:52:55
       Step Size:    0.500E+00 s, Total Time:     400.00 s
       Pressure Iterations: 1
       Maximum Velocity Error:  0.00E+00 on Mesh 1 at (0,0,0)
       Maximum Pressure Error:  0.00E+00 on Mesh 1 at (0,0,0)
       ---------------------------------------------------------------
       Mesh    1
       Max CFL number:  0.00E+00 at (0,0,0)
       Max divergence:  0.28E-16 at (3,2,1)
       Min divergence: -0.21E-16 at (2,2,1)
       Max VN number:   0.00E+00 at (0,0,0)
       Mesh    2
       Max CFL number:  0.00E+00 at (0,0,0)
       Max divergence:  0.28E-16 at (3,2,1)
       Min divergence: -0.21E-16 at (1,3,3)
       Max VN number:   0.00E+00 at (0,0,0)
 
       Time Step      900   November  3, 2025  17:52:55
       Step Size:    0.500E+00 s, Total Time:     450.00 s
       Pressure Iterations: 1
       Maximum Velocity Error:  0.00E+00 on Mesh 1 at (0,0,0)
       Maximum Pressure Error:  0.00E+00 on Mesh 1 at (0,0,0)
       ---------------------------------------------------------------
       Mesh    1
       Max CFL number:  0.00E+00 at (0,0,0)
       Max divergence:  0.28E-16 at (3,2,1)
       Min divergence: -0.21E-16 at (2,2,1)
       Max VN number:   0.00E+00 at (0,0,0)
       Mesh    2
       Max CFL number:  0.00E+00 at (0,0,0)
       Max divergence:  0.28E-16 at (3,2,1)
       Min divergence: -0.21E-16 at (1,3,3)
       Max VN number:   0.00E+00 at (0,0,0)
 
       Time Step     1000   November  3, 2025  17:52:55
       Step Size:    0.500E+00 s, Total Time:     500.00 s
       Pressure Iterations: 1
       Maximum Velocity Error:  0.00E+00 on Mesh 1 at (0,0,0)
       Maximum Pressure Error:  0.00E+00 on Mesh 1 at (0,0,0)
       ---------------------------------------------------------------
       Mesh    1
       Max CFL number:  0.00E+00 at (0,0,0)
       Max divergence:  0.28E-16 at (3,2,1)
       Min divergence: -0.21E-16 at (2,2,1)
       Max VN number:   0.00E+00 at (0,0,0)
       Mesh    2
       Max CFL number:  0.00E+00 at (0,0,0)
       Max divergence:  0.28E-16 at (3,2,1)
       Min divergence: -0.21E-16 at (1,3,3)
       Max VN number:   0.00E+00 at (0,0,0)
 
       Time Step     1100   November  3, 2025  17:52:55
       Step Size:    0.500E+00 s, Total Time:     550.00 s
       Pressure Iterations: 1
       Maximum Velocity Error:  0.00E+00 on Mesh 1 at (0,0,0)
       Maximum Pressure Error:  0.00E+00 on Mesh 1 at (0,0,0)
       ---------------------------------------------------------------
       Mesh    1
       Max CFL number:  0.00E+00 at (0,0,0)
       Max divergence:  0.28E-16 at (3,2,1)
       Min divergence: -0.21E-16 at (2,2,1)
       Max VN number:   0.00E+00 at (0,0,0)
       Mesh    2
       Max CFL number:  0.00E+00 at (0,0,0)
       Max divergence:  0.28E-16 at (3,2,1)
       Min divergence: -0.21E-16 at (1,3,3)
       Max VN number:   0.00E+00 at (0,0,0)
 
       Time Step     1200   November  3, 2025  17:52:55
       Step Size:    0.500E+00 s, Total Time:     600.00 s
       Pressure Iterations: 1
       Maximum Velocity Error:  0.00E+00 on Mesh 1 at (0,0,0)
       Maximum Pressure Error:  0.00E+00 on Mesh 1 at (0,0,0)
       ---------------------------------------------------------------
       Mesh    1
       Max CFL number:  0.00E+00 at (0,0,0)
       Max divergence:  0.28E-16 at (3,2,1)
       Min divergence: -0.21E-16 at (2,2,1)
       Max VN number:   0.00E+00 at (0,0,0)
       Mesh    2
       Max CFL number:  0.00E+00 at (0,0,0)
       Max divergence:  0.28E-16 at (3,2,1)
       Min divergence: -0.21E-16 at (1,3,3)
       Max VN number:   0.00E+00 at (0,0,0)
 
       Time Step     1300   November  3, 2025  17:52:55
       Step Size:    0.500E+00 s, Total Time:     650.00 s
       Pressure Iterations: 1
       Maximum Velocity Error:  0.00E+00 on Mesh 1 at (0,0,0)
       Maximum Pressure Error:  0.00E+00 on Mesh 1 at (0,0,0)
       ---------------------------------------------------------------
       Mesh    1
       Max CFL number:  0.00E+00 at (0,0,0)
       Max divergence:  0.28E-16 at (3,2,1)
       Min divergence: -0.21E-16 at (2,2,1)
       Max VN number:   0.00E+00 at (0,0,0)
       Mesh    2
       Max CFL number:  0.00E+00 at (0,0,0)
       Max divergence:  0.28E-16 at (3,2,1)
       Min divergence: -0.21E-16 at (1,3,3)
       Max VN number:   0.00E+00 at (0,0,0)
 
       Time Step     1400   November  3, 2025  17:52:55
       Step Size:    0.500E+00 s, Total Time:     700.00 s
       Pressure Iterations: 1
       Maximum Velocity Error:  0.00E+00 on Mesh 1 at (0,0,0)
       Maximum Pressure Error:  0.00E+00 on Mesh 1 at (0,0,0)
       ---------------------------------------------------------------
       Mesh    1
       Max CFL number:  0.00E+00 at (0,0,0)
       Max divergence:  0.28E-16 at (3,2,1)
       Min divergence: -0.21E-16 at (2,2,1)
       Max VN number:   0.00E+00 at (0,0,0)
       Mesh    2
       Max CFL number:  0.00E+00 at (0,0,0)
       Max divergence:  0.28E-16 at (3,2,1)
       Min divergence: -0.21E-16 at (1,3,3)
       Max VN number:   0.00E+00 at (0,0,0)
 
       Time Step     1500   November  3, 2025  17:52:55
       Step Size:    0.500E+00 s, Total Time:     750.00 s
       Pressure Iterations: 1
       Maximum Velocity Error:  0.00E+00 on Mesh 1 at (0,0,0)
       Maximum Pressure Error:  0.00E+00 on Mesh 1 at (0,0,0)
       ---------------------------------------------------------------
       Mesh    1
       Max CFL number:  0.00E+00 at (0,0,0)
       Max divergence:  0.28E-16 at (3,2,1)
       Min divergence: -0.21E-16 at (2,2,1)
       Max VN number:   0.00E+00 at (0,0,0)
       Mesh    2
       Max CFL number:  0.00E+00 at (0,0,0)
       Max divergence:  0.28E-16 at (3,2,1)
       Min divergence: -0.21E-16 at (1,3,3)
       Max VN number:   0.00E+00 at (0,0,0)
 
       Time Step     1600   November  3, 2025  17:52:55
       Step Size:    0.500E+00 s, Total Time:     800.00 s
       Pressure Iterations: 1
       Maximum Velocity Error:  0.00E+00 on Mesh 1 at (0,0,0)
       Maximum Pressure Error:  0.00E+00 on Mesh 1 at (0,0,0)
       ---------------------------------------------------------------
       Mesh    1
       Max CFL number:  0.00E+00 at (0,0,0)
       Max divergence:  0.28E-16 at (3,2,1)
       Min divergence: -0.21E-16 at (2,2,1)
       Max VN number:   0.00E+00 at (0,0,0)
       Mesh    2
       Max CFL number:  0.00E+00 at (0,0,0)
       Max divergence:  0.28E-16 at (3,2,1)
       Min divergence: -0.21E-16 at (1,3,3)
       Max VN number:   0.00E+00 at (0,0,0)
 
       Time Step     1700   November  3, 2025  17:52:55
       Step Size:    0.500E+00 s, Total Time:     850.00 s
       Pressure Iterations: 1
       Maximum Velocity Error:  0.00E+00 on Mesh 1 at (0,0,0)
       Maximum Pressure Error:  0.00E+00 on Mesh 1 at (0,0,0)
       ---------------------------------------------------------------
       Mesh    1
       Max CFL number:  0.00E+00 at (0,0,0)
       Max divergence:  0.28E-16 at (3,2,1)
       Min divergence: -0.21E-16 at (2,2,1)
       Max VN number:   0.00E+00 at (0,0,0)
       Mesh    2
       Max CFL number:  0.00E+00 at (0,0,0)
       Max divergence:  0.28E-16 at (3,2,1)
       Min divergence: -0.21E-16 at (1,3,3)
       Max VN number:   0.00E+00 at (0,0,0)
 
       Time Step     1800   November  3, 2025  17:52:55
       Step Size:    0.500E+00 s, Total Time:     900.00 s
       Pressure Iterations: 1
       Maximum Velocity Error:  0.00E+00 on Mesh 1 at (0,0,0)
       Maximum Pressure Error:  0.00E+00 on Mesh 1 at (0,0,0)
       ---------------------------------------------------------------
       Mesh    1
       Max CFL number:  0.00E+00 at (0,0,0)
       Max divergence:  0.28E-16 at (3,2,1)
       Min divergence: -0.21E-16 at (2,2,1)
       Max VN number:   0.00E+00 at (0,0,0)
       Mesh    2
       Max CFL number:  0.00E+00 at (0,0,0)
       Max divergence:  0.28E-16 at (3,2,1)
       Min divergence: -0.21E-16 at (1,3,3)
       Max VN number:   0.00E+00 at (0,0,0)
 
       Time Step     1900   November  3, 2025  17:52:55
       Step Size:    0.500E+00 s, Total Time:     950.00 s
       Pressure Iterations: 1
       Maximum Velocity Error:  0.00E+00 on Mesh 1 at (0,0,0)
       Maximum Pressure Error:  0.00E+00 on Mesh 1 at (0,0,0)
       ---------------------------------------------------------------
       Mesh    1
       Max CFL number:  0.00E+00 at (0,0,0)
       Max divergence:  0.28E-16 at (3,2,1)
       Min divergence: -0.21E-16 at (2,2,1)
       Max VN number:   0.00E+00 at (0,0,0)
       Mesh    2
       Max CFL number:  0.00E+00 at (0,0,0)
       Max divergence:  0.28E-16 at (3,2,1)
       Min divergence: -0.21E-16 at (1,3,3)
       Max VN number:   0.00E+00 at (0,0,0)
 
       Time Step     2000   November  3, 2025  17:52:55
       Step Size:    0.500E+00 s, Total Time:    1000.00 s
       Pressure Iterations: 1
       Maximum Velocity Error:  0.00E+00 on Mesh 1 at (0,0,0)
       Maximum Pressure Error:  0.00E+00 on Mesh 1 at (0,0,0)
       ---------------------------------------------------------------
       Mesh    1
       Max CFL number:  0.00E+00 at (0,0,0)
       Max divergence:  0.28E-16 at (3,2,1)
       Min divergence: -0.21E-16 at (2,2,1)
       Max VN number:   0.00E+00 at (0,0,0)
       Mesh    2
       Max CFL number:  0.00E+00 at (0,0,0)
       Max divergence:  0.28E-16 at (3,2,1)
       Min divergence: -0.21E-16 at (1,3,3)
       Max VN number:   0.00E+00 at (0,0,0)
 
       Time Step     2100   November  3, 2025  17:52:55
       Step Size:    0.500E+00 s, Total Time:    1050.00 s
       Pressure Iterations: 1
       Maximum Velocity Error:  0.00E+00 on Mesh 1 at (0,0,0)
       Maximum Pressure Error:  0.00E+00 on Mesh 1 at (0,0,0)
       ---------------------------------------------------------------
       Mesh    1
       Max CFL number:  0.00E+00 at (0,0,0)
       Max divergence:  0.28E-16 at (3,2,1)
       Min divergence: -0.21E-16 at (2,2,1)
       Max VN number:   0.00E+00 at (0,0,0)
       Mesh    2
       Max CFL number:  0.00E+00 at (0,0,0)
       Max divergence:  0.28E-16 at (3,2,1)
       Min divergence: -0.21E-16 at (1,3,3)
       Max VN number:   0.00E+00 at (0,0,0)
 
       Time Step     2200   November  3, 2025  17:52:55
       Step Size:    0.500E+00 s, Total Time:    1100.00 s
       Pressure Iterations: 1
       Maximum Velocity Error:  0.00E+00 on Mesh 1 at (0,0,0)
       Maximum Pressure Error:  0.00E+00 on Mesh 1 at (0,0,0)
       ---------------------------------------------------------------
       Mesh    1
       Max CFL number:  0.00E+00 at (0,0,0)
       Max divergence:  0.28E-16 at (3,2,1)
       Min divergence: -0.21E-16 at (2,2,1)
       Max VN number:   0.00E+00 at (0,0,0)
       Mesh    2
       Max CFL number:  0.00E+00 at (0,0,0)
       Max divergence:  0.28E-16 at (3,2,1)
       Min divergence: -0.21E-16 at (1,3,3)
       Max VN number:   0.00E+00 at (0,0,0)
 
       Time Step     2300   November  3, 2025  17:52:55
       Step Size:    0.500E+00 s, Total Time:    1150.00 s
       Pressure Iterations: 1
       Maximum Velocity Error:  0.00E+00 on Mesh 1 at (0,0,0)
       Maximum Pressure Error:  0.00E+00 on Mesh 1 at (0,0,0)
       ---------------------------------------------------------------
       Mesh    1
       Max CFL number:  0.00E+00 at (0,0,0)
       Max divergence:  0.28E-16 at (3,2,1)
       Min divergence: -0.21E-16 at (2,2,1)
       Max VN number:   0.00E+00 at (0,0,0)
       Mesh    2
       Max CFL number:  0.00E+00 at (0,0,0)
       Max divergence:  0.28E-16 at (3,2,1)
       Min divergence: -0.21E-16 at (1,3,3)
       Max VN number:   0.00E+00 at (0,0,0)
 
       Time Step     2400   November  3, 2025  17:52:55
       Step Size:    0.500E+00 s, Total Time:    1200.00 s
       Pressure Iterations: 1
       Maximum Velocity Error:  0.00E+00 on Mesh 1 at (0,0,0)
       Maximum Pressure Error:  0.00E+00 on Mesh 1 at (0,0,0)
       ---------------------------------------------------------------
       Mesh    1
       Max CFL number:  0.00E+00 at (0,0,0)
       Max divergence:  0.28E-16 at (3,2,1)
       Min divergence: -0.21E-16 at (2,2,1)
       Max VN number:   0.00E+00 at (0,0,0)
       Mesh    2
       Max CFL number:  0.00E+00 at (0,0,0)
       Max divergence:  0.28E-16 at (3,2,1)
       Min divergence: -0.21E-16 at (1,3,3)
       Max VN number:   0.00E+00 at (0,0,0)
 
       Time Step     2500   November  3, 2025  17:52:55
       Step Size:    0.500E+00 s, Total Time:    1250.00 s
       Pressure Iterations: 1
       Maximum Velocity Error:  0.00E+00 on Mesh 1 at (0,0,0)
       Maximum Pressure Error:  0.00E+00 on Mesh 1 at (0,0,0)
       ---------------------------------------------------------------
       Mesh    1
       Max CFL number:  0.00E+00 at (0,0,0)
       Max divergence:  0.28E-16 at (3,2,1)
       Min divergence: -0.21E-16 at (2,2,1)
       Max VN number:   0.00E+00 at (0,0,0)
       Mesh    2
       Max CFL number:  0.00E+00 at (0,0,0)
       Max divergence:  0.28E-16 at (3,2,1)
       Min divergence: -0.21E-16 at (1,3,3)
       Max VN number:   0.00E+00 at (0,0,0)
 
       Time Step     2600   November  3, 2025  17:52:55
       Step Size:    0.500E+00 s, Total Time:    1300.00 s
       Pressure Iterations: 1
       Maximum Velocity Error:  0.00E+00 on Mesh 1 at (0,0,0)
       Maximum Pressure Error:  0.00E+00 on Mesh 1 at (0,0,0)
       ---------------------------------------------------------------
       Mesh    1
       Max CFL number:  0.00E+00 at (0,0,0)
       Max divergence:  0.28E-16 at (3,2,1)
       Min divergence: -0.21E-16 at (2,2,1)
       Max VN number:   0.00E+00 at (0,0,0)
       Mesh    2
       Max CFL number:  0.00E+00 at (0,0,0)
       Max divergence:  0.28E-16 at (3,2,1)
       Min divergence: -0.21E-16 at (1,3,3)
       Max VN number:   0.00E+00 at (0,0,0)
 
       Time Step     2700   November  3, 2025  17:52:55
       Step Size:    0.500E+00 s, Total Time:    1350.00 s
       Pressure Iterations: 1
       Maximum Velocity Error:  0.00E+00 on Mesh 1 at (0,0,0)
       Maximum Pressure Error:  0.00E+00 on Mesh 1 at (0,0,0)
       ---------------------------------------------------------------
       Mesh    1
       Max CFL number:  0.00E+00 at (0,0,0)
       Max divergence:  0.28E-16 at (3,2,1)
       Min divergence: -0.21E-16 at (2,2,1)
       Max VN number:   0.00E+00 at (0,0,0)
       Mesh    2
       Max CFL number:  0.00E+00 at (0,0,0)
       Max divergence:  0.28E-16 at (3,2,1)
       Min divergence: -0.21E-16 at (1,3,3)
       Max VN number:   0.00E+00 at (0,0,0)
 
       Time Step     2800   November  3, 2025  17:52:55
       Step Size:    0.500E+00 s, Total Time:    1400.00 s
       Pressure Iterations: 1
       Maximum Velocity Error:  0.00E+00 on Mesh 1 at (0,0,0)
       Maximum Pressure Error:  0.00E+00 on Mesh 1 at (0,0,0)
       ---------------------------------------------------------------
       Mesh    1
       Max CFL number:  0.00E+00 at (0,0,0)
       Max divergence:  0.28E-16 at (3,2,1)
       Min divergence: -0.21E-16 at (2,2,1)
       Max VN number:   0.00E+00 at (0,0,0)
       Mesh    2
       Max CFL number:  0.00E+00 at (0,0,0)
       Max divergence:  0.28E-16 at (3,2,1)
       Min divergence: -0.21E-16 at (1,3,3)
       Max VN number:   0.00E+00 at (0,0,0)
 
       Time Step     2900   November  3, 2025  17:52:55
       Step Size:    0.500E+00 s, Total Time:    1450.00 s
       Pressure Iterations: 1
       Maximum Velocity Error:  0.00E+00 on Mesh 1 at (0,0,0)
       Maximum Pressure Error:  0.00E+00 on Mesh 1 at (0,0,0)
       ---------------------------------------------------------------
       Mesh    1
       Max CFL number:  0.00E+00 at (0,0,0)
       Max divergence:  0.28E-16 at (3,2,1)
       Min divergence: -0.21E-16 at (2,2,1)
       Max VN number:   0.00E+00 at (0,0,0)
       Mesh    2
       Max CFL number:  0.00E+00 at (0,0,0)
       Max divergence:  0.28E-16 at (3,2,1)
       Min divergence: -0.21E-16 at (1,3,3)
       Max VN number:   0.00E+00 at (0,0,0)
 
       Time Step     3000   November  3, 2025  17:52:55
       Step Size:    0.500E+00 s, Total Time:    1500.00 s
       Pressure Iterations: 1
       Maximum Velocity Error:  0.00E+00 on Mesh 1 at (0,0,0)
       Maximum Pressure Error:  0.00E+00 on Mesh 1 at (0,0,0)
       ---------------------------------------------------------------
       Mesh    1
       Max CFL number:  0.00E+00 at (0,0,0)
       Max divergence:  0.28E-16 at (3,2,1)
       Min divergence: -0.21E-16 at (2,2,1)
       Max VN number:   0.00E+00 at (0,0,0)
       Mesh    2
       Max CFL number:  0.00E+00 at (0,0,0)
       Max divergence:  0.28E-16 at (3,2,1)
       Min divergence: -0.21E-16 at (1,3,3)
       Max VN number:   0.00E+00 at (0,0,0)
 
       Time Step     3100   November  3, 2025  17:52:55
       Step Size:    0.500E+00 s, Total Time:    1550.00 s
       Pressure Iterations: 1
       Maximum Velocity Error:  0.00E+00 on Mesh 1 at (0,0,0)
       Maximum Pressure Error:  0.00E+00 on Mesh 1 at (0,0,0)
       ---------------------------------------------------------------
       Mesh    1
       Max CFL number:  0.00E+00 at (0,0,0)
       Max divergence:  0.28E-16 at (3,2,1)
       Min divergence: -0.21E-16 at (2,2,1)
       Max VN number:   0.00E+00 at (0,0,0)
       Mesh    2
       Max CFL number:  0.00E+00 at (0,0,0)
       Max divergence:  0.28E-16 at (3,2,1)
       Min divergence: -0.21E-16 at (1,3,3)
       Max VN number:   0.00E+00 at (0,0,0)
 
       Time Step     3200   November  3, 2025  17:52:55
       Step Size:    0.500E+00 s, Total Time:    1600.00 s
       Pressure Iterations: 1
       Maximum Velocity Error:  0.00E+00 on Mesh 1 at (0,0,0)
       Maximum Pressure Error:  0.00E+00 on Mesh 1 at (0,0,0)
       ---------------------------------------------------------------
       Mesh    1
       Max CFL number:  0.00E+00 at (0,0,0)
       Max divergence:  0.28E-16 at (3,2,1)
       Min divergence: -0.21E-16 at (2,2,1)
       Max VN number:   0.00E+00 at (0,0,0)
       Mesh    2
       Max CFL number:  0.00E+00 at (0,0,0)
       Max divergence:  0.28E-16 at (3,2,1)
       Min divergence: -0.21E-16 at (1,3,3)
       Max VN number:   0.00E+00 at (0,0,0)
 
       Time Step     3300   November  3, 2025  17:52:55
       Step Size:    0.500E+00 s, Total Time:    1650.00 s
       Pressure Iterations: 1
       Maximum Velocity Error:  0.00E+00 on Mesh 1 at (0,0,0)
       Maximum Pressure Error:  0.00E+00 on Mesh 1 at (0,0,0)
       ---------------------------------------------------------------
       Mesh    1
       Max CFL number:  0.00E+00 at (0,0,0)
       Max divergence:  0.28E-16 at (3,2,1)
       Min divergence: -0.21E-16 at (2,2,1)
       Max VN number:   0.00E+00 at (0,0,0)
       Mesh    2
       Max CFL number:  0.00E+00 at (0,0,0)
       Max divergence:  0.28E-16 at (3,2,1)
       Min divergence: -0.21E-16 at (1,3,3)
       Max VN number:   0.00E+00 at (0,0,0)
 
       Time Step     3400   November  3, 2025  17:52:55
       Step Size:    0.500E+00 s, Total Time:    1700.00 s
       Pressure Iterations: 1
       Maximum Velocity Error:  0.00E+00 on Mesh 1 at (0,0,0)
       Maximum Pressure Error:  0.00E+00 on Mesh 1 at (0,0,0)
       ---------------------------------------------------------------
       Mesh    1
       Max CFL number:  0.00E+00 at (0,0,0)
       Max divergence:  0.28E-16 at (3,2,1)
       Min divergence: -0.21E-16 at (2,2,1)
       Max VN number:   0.00E+00 at (0,0,0)
       Mesh    2
       Max CFL number:  0.00E+00 at (0,0,0)
       Max divergence:  0.28E-16 at (3,2,1)
       Min divergence: -0.21E-16 at (1,3,3)
       Max VN number:   0.00E+00 at (0,0,0)
 
       Time Step     3500   November  3, 2025  17:52:55
       Step Size:    0.500E+00 s, Total Time:    1750.00 s
       Pressure Iterations: 1
       Maximum Velocity Error:  0.00E+00 on Mesh 1 at (0,0,0)
       Maximum Pressure Error:  0.00E+00 on Mesh 1 at (0,0,0)
       ---------------------------------------------------------------
       Mesh    1
       Max CFL number:  0.00E+00 at (0,0,0)
       Max divergence:  0.28E-16 at (3,2,1)
       Min divergence: -0.21E-16 at (2,2,1)
       Max VN number:   0.00E+00 at (0,0,0)
       Mesh    2
       Max CFL number:  0.00E+00 at (0,0,0)
       Max divergence:  0.28E-16 at (3,2,1)
       Min divergence: -0.21E-16 at (1,3,3)
       Max VN number:   0.00E+00 at (0,0,0)
 


 Time Stepping Wall Clock Time (s):        0.422
 Total Elapsed Wall Clock Time (s):        0.967

STOP: FDS completed successfully (CHID: spruce_N2_50_cat)
