&HEAD CHID='Apartment' TITLE='Example in the Fire Simulation Lecture' /
&TIME T_END=180.0 /

&MISC BNDF_DEFAULT = F /
&BNDF QUANTITY = 'WALL TEMPERATURE' /

&DUMP NFRAMES=240, WRITE_XYZ=.TRUE. /

# ---------------------------------------
# Domain boundary
# ---------------------------------------

&VENT DB='YMAX', SURF_ID='OPEN' /

&VENT ID='OpenCeiling'
      SURF_ID='OPEN'
      XB=-1.5000,9.3000,4.3000,5.0000,2.2000,2.2000 /
&VENT ID='OpenLeft'
      SURF_ID='OPEN'
      XB=9.3000,9.3000,4.3000,5.0000,0.0000,2.2000 /
&VENT ID='OpenRight'
      SURF_ID='OPEN'
      XB=-1.5000,-1.5000,4.3000,5.0000,0.0000,2.2000 /



# ---------------------------------------
# Gas burner: methane
# ---------------------------------------
&SPEC ID = 'METHANE' /

&REAC FUEL               = 'METHANE',
      SOOT_YIELD         = 0.060,
      RADIATIVE_FRACTION = 0.02 /

# Burners:
&SURF ID         = 'BURNER',
      HRRPUA     = 1000.0,
      TMP_FRONT  = 250.0,
      COLOR      = 'RASPBERRY' /

&OBST ID       = 'BurnerBase',
      SURF_IDS = 'BURNER', 'Wall Lining', 'Wall Lining',
      XB = 7.8,8.2, -0.2,0.2, 0.00,0.20 /

# ---------------------------------------
# Surface definition (boundary conditions)
# ---------------------------------------

&SURF ID                      = 'Wall Lining',
      COLOR                   = 'BEIGE',
      DEFAULT                 = T,
      THICKNESS(1:1)          = 0.0254,
      MATL_ID(1,1:1)          = 'MARINITE',
      MATL_MASS_FRACTION(1,1) = 1.0 /


&MATL ID            = 'MARINITE'
      EMISSIVITY    = 0.9
      DENSITY       = 737.
      SPECIFIC_HEAT = 1.2
      CONDUCTIVITY  = 0.12 /



--- Computational domain  - 8 MESH

Cell Qty: 19008 | Size: 0.100·0.100·0.100m | Aspect: 1.0 | Poisson: No
&MESH ID='Domain' IJK=27,32,22 XB=-1.5000,1.2000,1.8000,5.0000,0.0000,2.2000 MPI_PROCESS=0/
Cell Qty: 19008 | Size: 0.100·0.100·0.100m | Aspect: 1.0 | Poisson: No
&MESH ID='Domain.001' IJK=27,32,22 XB=1.2000,3.9000,1.8000,5.0000,0.0000,2.2000 MPI_PROCESS=0/
Cell Qty: 19008 | Size: 0.100·0.100·0.100m | Aspect: 1.0 | Poisson: No
&MESH ID='Domain.002' IJK=27,32,22 XB=3.9000,6.6000,1.8000,5.0000,0.0000,2.2000 MPI_PROCESS=1/
Cell Qty: 19008 | Size: 0.100·0.100·0.100m | Aspect: 1.0 | Poisson: No
&MESH ID='Domain.003' IJK=27,32,22 XB=6.6000,9.3000,1.8000,5.0000,0.0000,2.2000 MPI_PROCESS=1/
Cell Qty: 19008 | Size: 0.100·0.100·0.100m | Aspect: 1.0 | Poisson: No
&MESH ID='Domain.004' IJK=27,32,22 XB=6.6000,9.3000,-1.4000,1.8000,0.0000,2.2000 MPI_PROCESS=2/
Cell Qty: 19008 | Size: 0.100·0.100·0.100m | Aspect: 1.0 | Poisson: No
&MESH ID='Domain.005' IJK=27,32,22 XB=3.9000,6.6000,-1.4000,1.8000,0.0000,2.2000 MPI_PROCESS=2/
Cell Qty: 19008 | Size: 0.100·0.100·0.100m | Aspect: 1.0 | Poisson: No
&MESH ID='Domain.006' IJK=27,32,22 XB=1.2000,3.9000,-1.4000,1.8000,0.0000,2.2000 MPI_PROCESS=3/
Cell Qty: 19008 | Size: 0.100·0.100·0.100m | Aspect: 1.0 | Poisson: No
&MESH ID='Domain.007' IJK=27,32,22
      XB=-1.5000,1.2000,-1.4000,1.8000,0.0000,2.2000 MPI_PROCESS=3/



--- Geometric namelists from Blender Collections

-- Blender Collection: <Obstacles>
&OBST ID='AppartmentDoor',
      XB=4.6000,5.1000,4.2000,4.3000,0.0000,2.2000 SURF_ID='Wall Lining' /
&OBST ID='AppartmentDoor.001',
      XB=5.9000,6.4000,4.2000,4.3000,0.0000,2.2000 SURF_ID='Wall Lining' /
&OBST ID='AppartmentDoor.002',
      XB=5.1000,5.9000,4.2000,4.3000,1.8000,2.2000 SURF_ID='Wall Lining' /

&OBST ID='Ceiling' SURF_ID='Wall Lining'
      XB=-1.5000,4.6000,-1.5000,4.3000,2.2000,2.3100 SURF_ID='Wall Lining' /
&OBST ID='Ceiling.001' SURF_ID='Wall Lining'
      XB=4.6000,9.4000,-1.5000,4.3000,2.2000,2.3100 SURF_ID='Wall Lining' /
&OBST ID='Floor', XB=-1.5000,9.4000,-1.5000,6.3100,-0.1100,0.0000
      SURF_ID='Wall Lining' /

&OBST ID='WallBack',
      XB=-1.5000,-1.4000,-1.4000,4.2000,0.0000,2.2000 SURF_ID='Wall Lining'
      BNDF_OBST=T /
&OBST ID='WallBack.001',
      XB=9.3000,9.4000,-1.5000,4.3000,0.0000,2.2000 SURF_ID='Wall Lining' /
&OBST ID='WallBathroom',
      XB=6.5000,7.5000,1.4000,1.5100,0.0000,2.2000 SURF_ID='Wall Lining' /
&OBST ID='WallBathroom.001',
      XB=8.3000,9.3200,1.4000,1.5100,0.0000,2.2000 SURF_ID='Wall Lining' /
&OBST ID='WallBathroom.002',
      XB=7.5000,8.3000,1.4000,1.5100,1.8000,2.2000 SURF_ID='Wall Lining' /
&OBST ID='WallCorridorKitchen',
      XB=6.4000,6.5000,0.4000,4.3000,0.0000,2.2000 SURF_ID='Wall Lining' /
&OBST ID='WallCorridorKitchen.001',
      XB=6.4000,6.5000,-1.5000,-0.4000,0.0000,2.2000 SURF_ID='Wall Lining' /
&OBST ID='WallCorridorKitchen.002',
      XB=6.4000,6.5000,-0.4000,0.4000,1.8000,2.2000 SURF_ID='Wall Lining' /
&OBST ID='WallCorridorLivingroom',
      XB=4.5000,4.6000,-1.5000,-0.4000,0.0000,2.2000 SURF_ID='Wall Lining'
      BNDF_OBST=T /
&OBST ID='WallCorridorLivingroom.001',
      XB=4.5000,4.6000,0.4000,4.3000,0.0000,2.2000 SURF_ID='Wall Lining'
      BNDF_OBST=T /
&OBST ID='WallCorridorLivingroom.002',
      XB=4.5000,4.6000,-0.4000,0.4000,1.8000,2.2000 SURF_ID='Wall Lining'
      BNDF_OBST=T /
&OBST ID='WallLeft',
      XB=-1.5000,4.5000,-1.5000,-1.4000,0.0000,2.2000 SURF_ID='Wall Lining' /
&OBST ID='WallLeft.001',
      XB=6.5000,9.3000,4.2000,4.3000,0.0000,2.2000 SURF_ID='Wall Lining' /
&OBST ID='WallLeft.002',
      XB=4.6000,6.4000,-1.5000,-1.4000,0.0000,2.2000 SURF_ID='Wall Lining' /
&OBST ID='WallRight',
      XB=-1.5000,4.5000,4.2000,4.3000,0.0000,2.2000 SURF_ID='Wall Lining' /
&OBST ID='WallRight.001',
      XB=6.5000,9.3000,-1.5000,-1.4000,0.0000,2.2000 SURF_ID='Wall Lining' /



# ---------------------------------------
# Analytics
# ---------------------------------------
&SLCF ID            = 'SootDensityZ_1.0m'
      PBZ           = 1.0000,
      QUANTITY      = 'DENSITY',
      SPEC_ID       = 'SOOT',
      CELL_CENTERED = T /
&SLCF ID            = 'SootDensityZ_1.5m'
      PBZ           = 1.5000,
      QUANTITY      = 'DENSITY',
      SPEC_ID       = 'SOOT',
      CELL_CENTERED = T /
&SLCF ID            = 'SootDensityZ_2.0m'
      PBZ           = 2.0000,
      QUANTITY      = 'DENSITY',
      SPEC_ID       = 'SOOT',
      CELL_CENTERED = T /

&DEVC XYZ=3.5,1.4,1.5, QUANTITY='TEMPERATURE', ID='living_room_temperature' /
&DEVC XYZ=5.5,1.4,1.5, QUANTITY='TEMPERATURE', ID='corridor_temperature' /
&DEVC XYZ=7.9,0,1.5, QUANTITY='TEMPERATURE', ID='kitchen_temperature' /
&DEVC XYZ=7.9,2.8,1.5, QUANTITY='TEMPERATURE', ID='bathroom_temperature' /

&DEVC XYZ=3.5,1.4,1.5, QUANTITY='VISIBILITY', ID='living_room_visibility' /
&DEVC XYZ=5.5,1.4,1.5, QUANTITY='VISIBILITY', ID='corridor_visibility' /
&DEVC XYZ=7.9,0,1.5, QUANTITY='VISIBILITY', ID='kitchen_visibility' /
&DEVC XYZ=7.9,2.8,1.5, QUANTITY='VISIBILITY', ID='bathroom_visibility' /

&TAIL /
